# generated using pymatgen
data_C
_symmetry_space_group_name_H-M   'P 1'
_cell_length_a   11.50371000
_cell_length_b   11.50654000
_cell_length_c   15.22743000
_cell_angle_alpha   109.64693000
_cell_angle_beta   109.61211000
_cell_angle_gamma   96.53630000
_symmetry_Int_Tables_number   1
_chemical_formula_structural   C
_chemical_formula_sum   C30
_cell_volume   1728.79116020
_cell_formula_units_Z   30
loop_
 _symmetry_equiv_pos_site_id
 _symmetry_equiv_pos_as_xyz
  1  'x, y, z'
loop_
 _atom_site_type_symbol
 _atom_site_label
 _atom_site_symmetry_multiplicity
 _atom_site_fract_x
 _atom_site_fract_y
 _atom_site_fract_z
 _atom_site_occupancy
  C  C0  1  0.15286000  0.21265000  0.13461000  1
  C  C1  1  0.23191000  0.83469000  0.91851000  1
  C  C2  1  0.40233000  0.29747000  0.26842000  1
  C  C3  1  0.21247000  0.15267000  0.63430000  1
  C  C4  1  0.79252000  0.85316000  0.01784000  1
  C  C5  1  0.91214000  0.44009000  0.56866000  1
  C  C6  1  0.29729000  0.40202000  0.76819000  1
  C  C7  1  0.98391000  0.46092000  0.73648000  1
  C  C8  1  0.59766000  0.70253000  0.73159000  1
  C  C9  1  0.55966000  0.08769000  0.93163000  1
  C  C10  1  0.84713000  0.78734000  0.86539000  1
  C  C11  1  0.01609000  0.53907000  0.26352000  1
  C  C12  1  0.30260000  0.30246000  0.80128000  1
  C  C13  1  0.62452000  0.75120000  0.83555000  1
  C  C14  1  0.69739000  0.69753000  0.19872000  1
  C  C15  1  0.83544000  0.23196000  0.41885000  1
  C  C16  1  0.70271000  0.59797000  0.23181000  1
  C  C17  1  0.85299000  0.79278000  0.51846000  1
  C  C18  1  0.78752000  0.84733000  0.36570000  1
  C  C19  1  0.20748000  0.14683000  0.98216000  1
  C  C20  1  0.24864000  0.37518000  0.66421000  1
  C  C21  1  0.16455000  0.76803000  0.58115000  1
  C  C22  1  0.46100000  0.98392000  0.23621000  1
  C  C23  1  0.14701000  0.20721000  0.48154000  1
  C  C24  1  0.53900000  0.01608000  0.76379000  1
  C  C25  1  0.44033000  0.91230000  0.06837000  1
  C  C26  1  0.76808000  0.16531000  0.08149000  1
  C  C27  1  0.30270000  0.30273000  0.30149000  1
  C  C28  1  0.08785000  0.55990000  0.43134000  1
  C  C29  1  0.69729000  0.69726000  0.69851000  1
