# generated using pymatgen
data_C
_symmetry_space_group_name_H-M   'P 1'
_cell_length_a   11.50371000
_cell_length_b   11.50654000
_cell_length_c   15.22743000
_cell_angle_alpha   109.64693000
_cell_angle_beta   109.61211000
_cell_angle_gamma   96.53630000
_symmetry_Int_Tables_number   1
_chemical_formula_structural   C
_chemical_formula_sum   C6
_cell_volume   1728.79116020
_cell_formula_units_Z   6
loop_
 _symmetry_equiv_pos_site_id
 _symmetry_equiv_pos_as_xyz
  1  'x, y, z'
loop_
 _atom_site_type_symbol
 _atom_site_label
 _atom_site_symmetry_multiplicity
 _atom_site_fract_x
 _atom_site_fract_y
 _atom_site_fract_z
 _atom_site_occupancy
  C  C0  1  0.91214000  0.44009000  0.56866000  1
  C  C1  1  0.98391000  0.46092000  0.73648000  1
  C  C2  1  0.88298000  0.30707000  0.53198000  1
  C  C3  1  0.24864000  0.37518000  0.66421000  1
  C  C4  1  0.90499000  0.24925000  0.60153000  1
  C  C5  1  0.95852000  0.32846000  0.70528000  1
