# generated using pymatgen
data_C
_symmetry_space_group_name_H-M   'P 1'
_cell_length_a   14.11882000
_cell_length_b   14.25722000
_cell_length_c   14.25616000
_cell_angle_alpha   95.17715000
_cell_angle_beta   117.44417000
_cell_angle_gamma   117.45335000
_symmetry_Int_Tables_number   1
_chemical_formula_structural   C
_chemical_formula_sum   C8
_cell_volume   2086.31371309
_cell_formula_units_Z   8
loop_
 _symmetry_equiv_pos_site_id
 _symmetry_equiv_pos_as_xyz
  1  'x, y, z'
loop_
 _atom_site_type_symbol
 _atom_site_label
 _atom_site_symmetry_multiplicity
 _atom_site_fract_x
 _atom_site_fract_y
 _atom_site_fract_z
 _atom_site_occupancy
  C  C0  1  0.16101000  0.63722000  0.00050000  1
  C  C1  1  0.17913000  0.54949000  0.99122000  1
  C  C2  1  0.33966000  0.84075000  0.97726000  1
  C  C3  1  0.32078000  0.81236000  0.87115000  1
  C  C4  1  0.36475000  0.52542000  0.86304000  1
  C  C5  1  0.44407000  0.63287000  0.95064000  1
  C  C6  1  0.13429000  0.49698000  0.65820000  1
  C  C7  1  0.05736000  0.50667000  0.68829000  1
