# generated using pymatgen
data_Co(C5N)4
_symmetry_space_group_name_H-M   'P 1'
_cell_length_a   14.11882000
_cell_length_b   14.25722000
_cell_length_c   14.25616000
_cell_angle_alpha   95.17715000
_cell_angle_beta   117.44417000
_cell_angle_gamma   117.45335000
_symmetry_Int_Tables_number   1
_chemical_formula_structural   Co(C5N)4
_chemical_formula_sum   'Co4 C80 N16'
_cell_volume   2086.31371309
_cell_formula_units_Z   4
loop_
 _symmetry_equiv_pos_site_id
 _symmetry_equiv_pos_as_xyz
  1  'x, y, z'
loop_
 _atom_site_type_symbol
 _atom_site_label
 _atom_site_symmetry_multiplicity
 _atom_site_fract_x
 _atom_site_fract_y
 _atom_site_fract_z
 _atom_site_occupancy
  Co  Co0  1  0.23611000  0.86762000  0.11830000  1
  Co  Co1  1  0.74928000  0.61706000  0.38235000  1
  Co  Co2  1  0.73508000  0.11778000  0.86751000  1
  Co  Co3  1  0.24948000  0.36708000  0.63246000  1
  C  C4  1  0.16170000  0.02343000  0.16119000  1
  C  C5  1  0.17983000  0.12945000  0.18794000  1
  C  C6  1  0.26714000  0.21999000  0.17790000  1
  C  C7  1  0.33806000  0.20254000  0.14155000  1
  C  C8  1  0.31416000  0.09358000  0.11697000  1
  C  C9  1  0.33960000  0.99869000  0.36309000  1
  C  C10  1  0.32029000  0.00862000  0.44992000  1
  C  C11  1  0.23180000  0.91170000  0.45296000  1
  C  C12  1  0.16159000  0.80340000  0.36551000  1
  C  C13  1  0.18866000  0.80128000  0.28266000  1
  C  C14  1  0.86577000  0.86324000  0.52408000  1
  C  C15  1  0.94324000  0.94978000  0.63178000  1
  C  C16  1  0.04329000  0.95325000  0.72415000  1
  C  C17  1  0.06411000  0.86662000  0.70602000  1
  C  C18  1  0.98306000  0.78423000  0.59457000  1
  C  C19  1  0.63536000  0.66053000  0.49792000  1
  C  C20  1  0.55658000  0.68855000  0.50675000  1
  C  C21  1  0.45615000  0.67981000  0.40970000  1
  C  C22  1  0.43689000  0.64287000  0.30273000  1
  C  C23  1  0.52034000  0.61624000  0.30179000  1
  C  C24  1  0.63343000  0.47588000  0.13621000  1
  C  C25  1  0.55656000  0.36820000  0.04989000  1
  C  C26  1  0.45675000  0.27540000  0.04644000  1
  C  C27  1  0.43595000  0.29334000  0.13302000  1
  C  C28  1  0.51595000  0.40484000  0.21492000  1
  C  C29  1  0.86359000  0.50138000  0.33882000  1
  C  C30  1  0.94284000  0.49281000  0.31125000  1
  C  C31  1  0.04338000  0.58995000  0.32029000  1
  C  C32  1  0.06268000  0.69696000  0.35739000  1
  C  C33  1  0.97884000  0.69763000  0.38370000  1
  C  C34  1  0.16101000  0.63722000  0.00050000  1
  C  C35  1  0.17913000  0.54949000  0.99122000  1
  C  C36  1  0.26695000  0.54650000  0.08847000  1
  C  C37  1  0.33795000  0.63495000  0.19617000  1
  C  C38  1  0.31384000  0.71978000  0.19756000  1
  C  C39  1  0.33966000  0.84075000  0.97726000  1
  C  C40  1  0.32078000  0.81236000  0.87115000  1
  C  C41  1  0.23265000  0.82095000  0.77965000  1
  C  C42  1  0.16232000  0.85864000  0.79674000  1
  C  C43  1  0.18906000  0.88705000  0.90667000  1
  C  C44  1  0.83984000  0.97725000  0.84129000  1
  C  C45  1  0.82065000  0.87102000  0.81238000  1
  C  C46  1  0.73202000  0.77922000  0.82046000  1
  C  C47  1  0.66206000  0.79650000  0.85841000  1
  C  C48  1  0.68923000  0.90651000  0.88744000  1
  C  C49  1  0.66141000  0.00026000  0.63769000  1
  C  C50  1  0.67919000  0.99101000  0.54970000  1
  C  C51  1  0.76670000  0.08830000  0.54655000  1
  C  C52  1  0.83786000  0.19605000  0.63505000  1
  C  C53  1  0.81402000  0.19737000  0.72010000  1
  C  C54  1  0.13457000  0.13661000  0.47437000  1
  C  C55  1  0.05577000  0.04920000  0.36697000  1
  C  C56  1  0.95549000  0.04576000  0.27510000  1
  C  C57  1  0.93636000  0.13339000  0.29349000  1
  C  C58  1  0.01973000  0.21759000  0.40408000  1
  C  C59  1  0.36496000  0.34143000  0.50237000  1
  C  C60  1  0.44232000  0.31171000  0.49299000  1
  C  C61  1  0.54230000  0.31931000  0.58953000  1
  C  C62  1  0.56331000  0.35770000  0.69723000  1
  C  C63  1  0.48274000  0.38812000  0.69895000  1
  C  C64  1  0.36475000  0.52542000  0.86304000  1
  C  C65  1  0.44407000  0.63287000  0.95064000  1
  C  C66  1  0.54452000  0.72444000  0.95402000  1
  C  C67  1  0.56348000  0.70589000  0.86630000  1
  C  C68  1  0.47931000  0.59538000  0.78168000  1
  C  C69  1  0.13429000  0.49698000  0.65820000  1
  C  C70  1  0.05736000  0.50667000  0.68829000  1
  C  C71  1  0.95729000  0.41012000  0.68080000  1
  C  C72  1  0.93625000  0.30246000  0.64244000  1
  C  C73  1  0.01650000  0.30047000  0.61174000  1
  C  C74  1  0.83992000  0.36311000  0.99903000  1
  C  C75  1  0.82040000  0.44985000  0.00882000  1
  C  C76  1  0.73189000  0.45275000  0.91191000  1
  C  C77  1  0.66163000  0.36530000  0.80351000  1
  C  C78  1  0.68875000  0.28249000  0.80154000  1
  C  C79  1  0.66182000  0.16105000  0.02381000  1
  C  C80  1  0.67988000  0.18788000  0.12973000  1
  C  C81  1  0.76732000  0.17809000  0.22046000  1
  C  C82  1  0.83804000  0.14159000  0.20280000  1
  C  C83  1  0.81421000  0.11692000  0.09391000  1
  N  N84  1  0.22809000  0.00433000  0.12470000  1
  N  N85  1  0.27536000  0.89463000  0.27950000  1
  N  N86  1  0.88598000  0.78019000  0.50413000  1
  N  N87  1  0.61728000  0.62302000  0.39523000  1
  N  N88  1  0.61263000  0.49571000  0.21878000  1
  N  N89  1  0.88150000  0.60402000  0.37620000  1
  N  N90  1  0.22751000  0.72281000  0.10378000  1
  N  N91  1  0.27517000  0.87997000  0.99642000  1
  N  N92  1  0.77579000  0.99659000  0.88095000  1
  N  N93  1  0.72798000  0.10354000  0.72334000  1
  N  N94  1  0.11672000  0.22125000  0.49422000  1
  N  N95  1  0.38570000  0.38153000  0.60596000  1
  N  N96  1  0.38213000  0.50550000  0.77807000  1
  N  N97  1  0.11334000  0.39338000  0.61780000  1
  N  N98  1  0.77538000  0.27939000  0.89492000  1
  N  N99  1  0.72803000  0.12444000  0.00455000  1
