# generated using pymatgen
data_HC
_symmetry_space_group_name_H-M   'P 1'
_cell_length_a   14.11882000
_cell_length_b   14.25722000
_cell_length_c   14.25616000
_cell_angle_alpha   95.17715000
_cell_angle_beta   117.44417000
_cell_angle_gamma   117.45335000
_symmetry_Int_Tables_number   1
_chemical_formula_structural   HC
_chemical_formula_sum   'H8 C8'
_cell_volume   2086.31371309
_cell_formula_units_Z   8
loop_
 _symmetry_equiv_pos_site_id
 _symmetry_equiv_pos_as_xyz
  1  'x, y, z'
loop_
 _atom_site_type_symbol
 _atom_site_label
 _atom_site_symmetry_multiplicity
 _atom_site_fract_x
 _atom_site_fract_y
 _atom_site_fract_z
 _atom_site_occupancy
  H  H0  1  0.78747000  0.85883000  0.45059000  1
  H  H1  1  0.92419000  0.01447000  0.64217000  1
  H  H2  1  0.71351000  0.66550000  0.57210000  1
  H  H3  1  0.57546000  0.71734000  0.59060000  1
  H  H4  1  0.90873000  0.05034000  0.83631000  1
  H  H5  1  0.87621000  0.86150000  0.78364000  1
  H  H6  1  0.59195000  0.92583000  0.64083000  1
  H  H7  1  0.62380000  0.90674000  0.48419000  1
  C  C8  1  0.86577000  0.86324000  0.52408000  1
  C  C9  1  0.94324000  0.94978000  0.63178000  1
  C  C10  1  0.63536000  0.66053000  0.49792000  1
  C  C11  1  0.55658000  0.68855000  0.50675000  1
  C  C12  1  0.83984000  0.97725000  0.84129000  1
  C  C13  1  0.82065000  0.87102000  0.81238000  1
  C  C14  1  0.66141000  0.00026000  0.63769000  1
  C  C15  1  0.67919000  0.99101000  0.54970000  1
