# generated using pymatgen
data_V4H13(C3O2)5
_symmetry_space_group_name_H-M   'P 1'
_cell_length_a   6.94349000
_cell_length_b   13.63256000
_cell_length_c   20.42528000
_cell_angle_alpha   102.13379000
_cell_angle_beta   89.61725000
_cell_angle_gamma   90.66425000
_symmetry_Int_Tables_number   1
_chemical_formula_structural   V4H13(C3O2)5
_chemical_formula_sum   'V4 H13 C15 O10'
_cell_volume   1890.06862669
_cell_formula_units_Z   1
loop_
 _symmetry_equiv_pos_site_id
 _symmetry_equiv_pos_as_xyz
  1  'x, y, z'
loop_
 _atom_site_type_symbol
 _atom_site_label
 _atom_site_symmetry_multiplicity
 _atom_site_fract_x
 _atom_site_fract_y
 _atom_site_fract_z
 _atom_site_occupancy
  V  V0  1  0.06468000  0.51180000  0.50222000  1
  V  V1  1  0.56401000  0.48820000  0.49778000  1
  V  V2  1  0.64817000  0.98820000  0.99778000  1
  V  V3  1  0.14881000  0.01193000  0.00218000  1
  H  H4  1  0.82096000  0.16151000  0.52017000  1
  H  H5  1  0.82570000  0.98594000  0.69592000  1
  H  H6  1  0.81780000  0.03297000  0.58789000  1
  H  H7  1  0.84108000  0.02867000  0.81640000  1
  H  H8  1  0.14300000  0.31721000  0.30625000  1
  H  H9  1  0.70397000  0.28779000  0.29976000  1
  H  H10  1  0.15618000  0.20158000  0.19663000  1
  H  H11  1  0.50403000  0.78532000  0.80156000  1
  H  H12  1  0.49212000  0.71855000  0.69528000  1
  H  H13  1  0.41286000  0.83634000  0.47941000  1
  H  H14  1  0.44584000  0.01087000  0.30325000  1
  H  H15  1  0.44397000  0.96385000  0.41136000  1
  H  H16  1  0.41974000  0.96910000  0.18298000  1
  C  C17  1  0.34736000  0.61428000  0.61425000  1
  C  C18  1  0.34726000  0.63789000  0.43519000  1
  C  C19  1  0.84011000  0.38410000  0.38654000  1
  C  C20  1  0.84220000  0.36224000  0.56494000  1
  C  C21  1  0.84703000  0.28529000  0.60501000  1
  C  C22  1  0.85633000  0.19038000  0.82406000  1
  C  C23  1  0.84434000  0.08950000  0.78980000  1
  C  C24  1  0.86562000  0.21518000  0.89493000  1
  C  C25  1  0.84271000  0.31577000  0.31978000  1
  C  C26  1  0.36003000  0.71462000  0.39501000  1
  C  C27  1  0.36861000  0.80925000  0.17585000  1
  C  C28  1  0.40336000  0.90887000  0.20976000  1
  C  C29  1  0.35299000  0.78504000  0.10511000  1
  C  C30  1  0.36579000  0.86228000  0.06500000  1
  C  C31  1  0.87049000  0.13766000  0.93493000  1
  O  O32  1  0.18022000  0.59460000  0.58678000  1
  O  O33  1  0.00450000  0.40061000  0.55076000  1
  O  O34  1  0.17749000  0.61129000  0.45197000  1
  O  O35  1  0.00175000  0.41742000  0.41499000  1
  O  O36  1  0.33742000  0.43637000  0.48802000  1
  O  O37  1  0.67171000  0.40540000  0.41322000  1
  O  O38  1  0.53263000  0.90537000  0.91323000  1
  O  O39  1  0.70819000  0.09941000  0.94923000  1
  O  O40  1  0.20612000  0.90051000  0.05079000  1
  O  O41  1  0.04112000  0.09471000  0.08675000  1
