# generated using pymatgen
data_V
_symmetry_space_group_name_H-M   'P 1'
_cell_length_a   28.02702000
_cell_length_b   7.22476000
_cell_length_c   17.19984000
_cell_angle_alpha   90.21883000
_cell_angle_beta   101.33720000
_cell_angle_gamma   89.80543000
_symmetry_Int_Tables_number   1
_chemical_formula_structural   V
_chemical_formula_sum   V4
_cell_volume   3414.77387073
_cell_formula_units_Z   4
loop_
 _symmetry_equiv_pos_site_id
 _symmetry_equiv_pos_as_xyz
  1  'x, y, z'
loop_
 _atom_site_type_symbol
 _atom_site_label
 _atom_site_symmetry_multiplicity
 _atom_site_fract_x
 _atom_site_fract_y
 _atom_site_fract_z
 _atom_site_occupancy
  V  V0  1  0.99577000  0.87790000  0.75483000  1
  V  V1  1  0.00423000  0.12210000  0.24517000  1
  V  V2  1  0.00423000  0.37790000  0.74517000  1
  V  V3  1  0.99577000  0.62210000  0.25483000  1
