# generated using pymatgen
data_V2C16O5
_symmetry_space_group_name_H-M   'P 1'
_cell_length_a   6.94349000
_cell_length_b   13.63256000
_cell_length_c   20.42528000
_cell_angle_alpha   102.13379000
_cell_angle_beta   89.61725000
_cell_angle_gamma   90.66425000
_symmetry_Int_Tables_number   1
_chemical_formula_structural   V2C16O5
_chemical_formula_sum   'V4 C32 O10'
_cell_volume   1890.06862669
_cell_formula_units_Z   2
loop_
 _symmetry_equiv_pos_site_id
 _symmetry_equiv_pos_as_xyz
  1  'x, y, z'
loop_
 _atom_site_type_symbol
 _atom_site_label
 _atom_site_symmetry_multiplicity
 _atom_site_fract_x
 _atom_site_fract_y
 _atom_site_fract_z
 _atom_site_occupancy
  V  V0  1  0.06468000  0.51180000  0.50222000  1
  V  V1  1  0.56401000  0.48820000  0.49778000  1
  V  V2  1  0.64817000  0.98820000  0.99778000  1
  V  V3  1  0.14881000  0.01193000  0.00218000  1
  C  C4  1  0.34736000  0.61428000  0.61425000  1
  C  C5  1  0.34726000  0.63789000  0.43519000  1
  C  C6  1  0.84011000  0.38410000  0.38654000  1
  C  C7  1  0.84220000  0.36224000  0.56494000  1
  C  C8  1  0.82920000  0.11126000  0.61282000  1
  C  C9  1  0.84703000  0.28529000  0.60501000  1
  C  C10  1  0.85633000  0.19038000  0.82406000  1
  C  C11  1  0.83972000  0.13905000  0.68293000  1
  C  C12  1  0.83570000  0.06448000  0.72044000  1
  C  C13  1  0.84434000  0.08950000  0.78980000  1
  C  C14  1  0.83150000  0.18405000  0.57416000  1
  C  C15  1  0.86562000  0.21518000  0.89493000  1
  C  C16  1  0.00567000  0.28874000  0.28465000  1
  C  C17  1  0.84271000  0.31577000  0.31978000  1
  C  C18  1  0.01335000  0.22069000  0.21702000  1
  C  C19  1  0.85795000  0.18320000  0.18040000  1
  C  C20  1  0.20362000  0.78151000  0.78710000  1
  C  C21  1  0.36509000  0.81345000  0.82098000  1
  C  C22  1  0.19794000  0.70678000  0.72236000  1
  C  C23  1  0.35357000  0.68357000  0.68099000  1
  C  C24  1  0.41545000  0.88663000  0.38668000  1
  C  C25  1  0.36003000  0.71462000  0.39501000  1
  C  C26  1  0.36861000  0.80925000  0.17585000  1
  C  C27  1  0.39839000  0.85950000  0.31672000  1
  C  C28  1  0.41832000  0.93334000  0.27900000  1
  C  C29  1  0.40336000  0.90887000  0.20976000  1
  C  C30  1  0.39741000  0.81444000  0.42554000  1
  C  C31  1  0.35299000  0.78504000  0.10511000  1
  C  C32  1  0.36579000  0.86228000  0.06500000  1
  C  C33  1  0.36496000  0.88380000  0.88672000  1
  C  C34  1  0.87049000  0.13766000  0.93493000  1
  C  C35  1  0.87217000  0.11570000  0.11353000  1
  O  O36  1  0.50686000  0.59939000  0.44924000  1
  O  O37  1  0.18022000  0.59460000  0.58678000  1
  O  O38  1  0.00450000  0.40061000  0.55076000  1
  O  O39  1  0.00175000  0.41742000  0.41499000  1
  O  O40  1  0.50961000  0.58258000  0.58501000  1
  O  O41  1  0.67171000  0.40540000  0.41322000  1
  O  O42  1  0.53263000  0.90537000  0.91323000  1
  O  O43  1  0.70819000  0.09941000  0.94923000  1
  O  O44  1  0.20612000  0.90051000  0.05079000  1
  O  O45  1  0.04112000  0.09471000  0.08675000  1
