# generated using pymatgen
data_O2
_symmetry_space_group_name_H-M   'P 1'
_cell_length_a   16.87526000
_cell_length_b   7.25407000
_cell_length_c   14.92523000
_cell_angle_alpha   90.00026000
_cell_angle_beta   94.58477000
_cell_angle_gamma   89.99967000
_symmetry_Int_Tables_number   1
_chemical_formula_structural   O2
_chemical_formula_sum   O6
_cell_volume   1821.21553772
_cell_formula_units_Z   3
loop_
 _symmetry_equiv_pos_site_id
 _symmetry_equiv_pos_as_xyz
  1  'x, y, z'
loop_
 _atom_site_type_symbol
 _atom_site_label
 _atom_site_symmetry_multiplicity
 _atom_site_fract_x
 _atom_site_fract_y
 _atom_site_fract_z
 _atom_site_occupancy
  O  O0  1  0.83654000  0.86176000  0.33403000  1
  O  O1  1  0.82710000  0.68987000  0.16373000  1
  O  O2  1  0.66349000  0.69137000  0.15550000  1
  O  O3  1  0.67177000  0.86332000  0.32574000  1
  O  O4  1  0.75291000  0.52880000  0.30586000  1
  O  O5  1  0.74709000  0.02880000  0.19414000  1
