# generated using pymatgen
data_O2
_symmetry_space_group_name_H-M   'P 1'
_cell_length_a   18.36531000
_cell_length_b   7.07697000
_cell_length_c   13.41729000
_cell_angle_alpha   90.00039000
_cell_angle_beta   69.76978000
_cell_angle_gamma   89.99990000
_symmetry_Int_Tables_number   1
_chemical_formula_structural   O2
_chemical_formula_sum   O6
_cell_volume   1636.27812833
_cell_formula_units_Z   3
loop_
 _symmetry_equiv_pos_site_id
 _symmetry_equiv_pos_as_xyz
  1  'x, y, z'
loop_
 _atom_site_type_symbol
 _atom_site_label
 _atom_site_symmetry_multiplicity
 _atom_site_fract_x
 _atom_site_fract_y
 _atom_site_fract_z
 _atom_site_occupancy
  O  O0  1  0.10097000  0.70549000  0.99721000  1
  O  O1  1  0.04200000  0.53637000  0.84084000  1
  O  O2  1  0.89593000  0.53507000  0.99269000  1
  O  O3  1  0.95387000  0.70752000  0.15004000  1
  O  O4  1  0.01920000  0.37434000  0.05134000  1
  O  O5  1  0.98080000  0.87434000  0.94866000  1
