# generated using pymatgen
data_Zn
_symmetry_space_group_name_H-M   'P 1'
_cell_length_a   12.85967000
_cell_length_b   8.92097000
_cell_length_c   8.10198000
_cell_angle_alpha   89.98487000
_cell_angle_beta   97.43182000
_cell_angle_gamma   90.05695000
_symmetry_Int_Tables_number   1
_chemical_formula_structural   Zn
_chemical_formula_sum   Zn2
_cell_volume   921.65660955
_cell_formula_units_Z   2
loop_
 _symmetry_equiv_pos_site_id
 _symmetry_equiv_pos_as_xyz
  1  'x, y, z'
loop_
 _atom_site_type_symbol
 _atom_site_label
 _atom_site_symmetry_multiplicity
 _atom_site_fract_x
 _atom_site_fract_y
 _atom_site_fract_z
 _atom_site_occupancy
  Zn  Zn0  1  0.49999000  0.50000000  0.68278000  1
  Zn  Zn1  1  0.50001000  0.50000000  0.31722000  1
