# generated using pymatgen
data_O2
_symmetry_space_group_name_H-M   'P 1'
_cell_length_a   16.54485000
_cell_length_b   7.25434000
_cell_length_c   15.23139000
_cell_angle_alpha   90.00585000
_cell_angle_beta   94.76537000
_cell_angle_gamma   89.99938000
_symmetry_Int_Tables_number   1
_chemical_formula_structural   O2
_chemical_formula_sum   O6
_cell_volume   1821.78209626
_cell_formula_units_Z   3
loop_
 _symmetry_equiv_pos_site_id
 _symmetry_equiv_pos_as_xyz
  1  'x, y, z'
loop_
 _atom_site_type_symbol
 _atom_site_label
 _atom_site_symmetry_multiplicity
 _atom_site_fract_x
 _atom_site_fract_y
 _atom_site_fract_z
 _atom_site_occupancy
  O  O0  1  0.33654000  0.63824000  0.83403000  1
  O  O1  1  0.32710000  0.81013000  0.66373000  1
  O  O2  1  0.16349000  0.80863000  0.65550000  1
  O  O3  1  0.17177000  0.63668000  0.82574000  1
  O  O4  1  0.24709000  0.47120000  0.69414000  1
  O  O5  1  0.25291000  0.97120000  0.80586000  1
