# generated using pymatgen
data_NO4
_symmetry_space_group_name_H-M   'P 1'
_cell_length_a   12.85967000
_cell_length_b   8.92097000
_cell_length_c   8.10198000
_cell_angle_alpha   89.98487000
_cell_angle_beta   97.43182000
_cell_angle_gamma   90.05695000
_symmetry_Int_Tables_number   1
_chemical_formula_structural   NO4
_chemical_formula_sum   'N2 O8'
_cell_volume   921.65660955
_cell_formula_units_Z   2
loop_
 _symmetry_equiv_pos_site_id
 _symmetry_equiv_pos_as_xyz
  1  'x, y, z'
loop_
 _atom_site_type_symbol
 _atom_site_label
 _atom_site_symmetry_multiplicity
 _atom_site_fract_x
 _atom_site_fract_y
 _atom_site_fract_z
 _atom_site_occupancy
  N  N0  1  0.50002000  0.50000000  0.07364000  1
  N  N1  1  0.49998000  0.50000000  0.92636000  1
  O  O2  1  0.49999000  0.28534000  0.63685000  1
  O  O3  1  0.50001000  0.71466000  0.36315000  1
  O  O4  1  0.50001000  0.28534000  0.36315000  1
  O  O5  1  0.49999000  0.71466000  0.63685000  1
  O  O6  1  0.34635000  0.50000000  0.61425000  1
  O  O7  1  0.65365000  0.50000000  0.38575000  1
  O  O8  1  0.34636000  0.50000000  0.34050000  1
  O  O9  1  0.65364000  0.50000000  0.65950000  1
