# generated using pymatgen
data_C
_symmetry_space_group_name_H-M   'P 1'
_cell_length_a   20.05701000
_cell_length_b   7.25839000
_cell_length_c   13.67811000
_cell_angle_alpha   89.99954000
_cell_angle_beta   102.83552000
_cell_angle_gamma   90.00222000
_symmetry_Int_Tables_number   1
_chemical_formula_structural   C
_chemical_formula_sum   C4
_cell_volume   1941.52265653
_cell_formula_units_Z   4
loop_
 _symmetry_equiv_pos_site_id
 _symmetry_equiv_pos_as_xyz
  1  'x, y, z'
loop_
 _atom_site_type_symbol
 _atom_site_label
 _atom_site_symmetry_multiplicity
 _atom_site_fract_x
 _atom_site_fract_y
 _atom_site_fract_z
 _atom_site_occupancy
  C  C0  1  0.17719000  0.44290000  0.63669000  1
  C  C1  1  0.21113000  0.36129000  0.72830000  1
  C  C2  1  0.27196000  0.17795000  0.90794000  1
  C  C3  1  0.20264000  0.21719000  0.88680000  1
