# generated using pymatgen
data_V
_symmetry_space_group_name_H-M   'P 1'
_cell_length_a   16.54485000
_cell_length_b   7.25434000
_cell_length_c   15.23139000
_cell_angle_alpha   90.00585000
_cell_angle_beta   94.76537000
_cell_angle_gamma   89.99938000
_symmetry_Int_Tables_number   1
_chemical_formula_structural   V
_chemical_formula_sum   V4
_cell_volume   1821.78209626
_cell_formula_units_Z   4
loop_
 _symmetry_equiv_pos_site_id
 _symmetry_equiv_pos_as_xyz
  1  'x, y, z'
loop_
 _atom_site_type_symbol
 _atom_site_label
 _atom_site_symmetry_multiplicity
 _atom_site_fract_x
 _atom_site_fract_y
 _atom_site_fract_z
 _atom_site_occupancy
  V  V0  1  0.74946000  0.80301000  0.23964000  1
  V  V1  1  0.25054000  0.19699000  0.76036000  1
  V  V2  1  0.75054000  0.30301000  0.26036000  1
  V  V3  1  0.24946000  0.69699000  0.73964000  1
