# generated using pymatgen
data_C
_symmetry_space_group_name_H-M   'P 1'
_cell_length_a   16.54678000
_cell_length_b   7.25422000
_cell_length_c   15.22888000
_cell_angle_alpha   90.00960000
_cell_angle_beta   94.76933000
_cell_angle_gamma   89.99982000
_symmetry_Int_Tables_number   1
_chemical_formula_structural   C
_chemical_formula_sum   C36
_cell_volume   1821.65371258
_cell_formula_units_Z   36
loop_
 _symmetry_equiv_pos_site_id
 _symmetry_equiv_pos_as_xyz
  1  'x, y, z'
loop_
 _atom_site_type_symbol
 _atom_site_label
 _atom_site_symmetry_multiplicity
 _atom_site_fract_x
 _atom_site_fract_y
 _atom_site_fract_z
 _atom_site_occupancy
  C  C0  1  0.85326000  0.52293000  0.14356000  1
  C  C1  1  0.14674000  0.47707000  0.85644000  1
  C  C2  1  0.64674000  0.02294000  0.35644000  1
  C  C3  1  0.35326000  0.97706000  0.64356000  1
  C  C4  1  0.63610000  0.52287000  0.13386000  1
  C  C5  1  0.36390000  0.47713000  0.86614000  1
  C  C6  1  0.86391000  0.02288000  0.36612000  1
  C  C7  1  0.13608000  0.97712000  0.63388000  1
  C  C8  1  0.46878000  0.99470000  0.53006000  1
  C  C9  1  0.53122000  0.00530000  0.46994000  1
  C  C10  1  0.03122000  0.49471000  0.96994000  1
  C  C11  1  0.96878000  0.50530000  0.03006000  1
  C  C12  1  0.02869000  0.09743000  0.32507000  1
  C  C13  1  0.97131000  0.90257000  0.67493000  1
  C  C14  1  0.47110000  0.59275000  0.17547000  1
  C  C15  1  0.52890000  0.40725000  0.82453000  1
  C  C16  1  0.10766000  0.13252000  0.30203000  1
  C  C17  1  0.89234000  0.86748000  0.69797000  1
  C  C18  1  0.39202000  0.62539000  0.19881000  1
  C  C19  1  0.60798000  0.37461000  0.80119000  1
  C  C20  1  0.17233000  0.12015000  0.36704000  1
  C  C21  1  0.82767000  0.87985000  0.63296000  1
  C  C22  1  0.32732000  0.61276000  0.13383000  1
  C  C23  1  0.67268000  0.38724000  0.86617000  1
  C  C24  1  0.15886000  0.07296000  0.45325000  1
  C  C25  1  0.84114000  0.92704000  0.54675000  1
  C  C26  1  0.07984000  0.03708000  0.47762000  1
  C  C27  1  0.92015000  0.96292000  0.52238000  1
  C  C28  1  0.01337000  0.04991000  0.41231000  1
  C  C29  1  0.98663000  0.95009000  0.58769000  1
  C  C30  1  0.06663000  0.98699000  0.56530000  1
  C  C31  1  0.93337000  0.01301000  0.43469000  1
  C  C32  1  0.41594000  0.98615000  0.58140000  1
  C  C33  1  0.58406000  0.01385000  0.41860000  1
  C  C34  1  0.08407000  0.48617000  0.91861000  1
  C  C35  1  0.91593000  0.51383000  0.08139000  1
