# generated using pymatgen
data_C
_symmetry_space_group_name_H-M   'P 1'
_cell_length_a   16.87526000
_cell_length_b   7.25407000
_cell_length_c   14.92523000
_cell_angle_alpha   90.00026000
_cell_angle_beta   94.58477000
_cell_angle_gamma   89.99967000
_symmetry_Int_Tables_number   1
_chemical_formula_structural   C
_chemical_formula_sum   C4
_cell_volume   1821.21553772
_cell_formula_units_Z   4
loop_
 _symmetry_equiv_pos_site_id
 _symmetry_equiv_pos_as_xyz
  1  'x, y, z'
loop_
 _atom_site_type_symbol
 _atom_site_label
 _atom_site_symmetry_multiplicity
 _atom_site_fract_x
 _atom_site_fract_y
 _atom_site_fract_z
 _atom_site_occupancy
  C  C0  1  0.36103000  0.47609000  0.87011000  1
  C  C1  1  0.34921000  0.46305000  0.07148000  1
  C  C2  1  0.43127000  0.47703000  0.93836000  1
  C  C3  1  0.28795000  0.34369000  0.03189000  1
