# generated using pymatgen
data_C
_symmetry_space_group_name_H-M   'P 1'
_cell_length_a   28.02702000
_cell_length_b   7.22476000
_cell_length_c   17.19984000
_cell_angle_alpha   90.21883000
_cell_angle_beta   101.33720000
_cell_angle_gamma   89.80543000
_symmetry_Int_Tables_number   1
_chemical_formula_structural   C
_chemical_formula_sum   C4
_cell_volume   3414.77387073
_cell_formula_units_Z   4
loop_
 _symmetry_equiv_pos_site_id
 _symmetry_equiv_pos_as_xyz
  1  'x, y, z'
loop_
 _atom_site_type_symbol
 _atom_site_label
 _atom_site_symmetry_multiplicity
 _atom_site_fract_x
 _atom_site_fract_y
 _atom_site_fract_z
 _atom_site_occupancy
  C  C0  1  0.39805000  0.03857000  0.94641000  1
  C  C1  1  0.38415000  0.94816000  0.07508000  1
  C  C2  1  0.44923000  0.02241000  0.97413000  1
  C  C3  1  0.43405000  0.96544000  0.10694000  1
