# generated using pymatgen
data_C
_symmetry_space_group_name_H-M   'P 1'
_cell_length_a   16.54485000
_cell_length_b   7.25434000
_cell_length_c   15.23139000
_cell_angle_alpha   90.00585000
_cell_angle_beta   94.76537000
_cell_angle_gamma   89.99938000
_symmetry_Int_Tables_number   1
_chemical_formula_structural   C
_chemical_formula_sum   C36
_cell_volume   1821.78209626
_cell_formula_units_Z   36
loop_
 _symmetry_equiv_pos_site_id
 _symmetry_equiv_pos_as_xyz
  1  'x, y, z'
loop_
 _atom_site_type_symbol
 _atom_site_label
 _atom_site_symmetry_multiplicity
 _atom_site_fract_x
 _atom_site_fract_y
 _atom_site_fract_z
 _atom_site_occupancy
  C  C0  1  0.85326000  0.52293000  0.14356000  1
  C  C1  1  0.14674000  0.47707000  0.85644000  1
  C  C2  1  0.64674000  0.02294000  0.35644000  1
  C  C3  1  0.35326000  0.97706000  0.64356000  1
  C  C4  1  0.63609000  0.52287000  0.13387000  1
  C  C5  1  0.36391000  0.47713000  0.86613000  1
  C  C6  1  0.86393000  0.02288000  0.36611000  1
  C  C7  1  0.13607000  0.97712000  0.63389000  1
  C  C8  1  0.46878000  0.99470000  0.53006000  1
  C  C9  1  0.53122000  0.00530000  0.46994000  1
  C  C10  1  0.03123000  0.49470000  0.96995000  1
  C  C11  1  0.96877000  0.50530000  0.03005000  1
  C  C12  1  0.02863000  0.09952000  0.32534000  1
  C  C13  1  0.97137000  0.90048000  0.67466000  1
  C  C14  1  0.47112000  0.59415000  0.17527000  1
  C  C15  1  0.52888000  0.40585000  0.82473000  1
  C  C16  1  0.10756000  0.13572000  0.30245000  1
  C  C17  1  0.89244000  0.86428000  0.69755000  1
  C  C18  1  0.39205000  0.62743000  0.19850000  1
  C  C19  1  0.60795000  0.37257000  0.80150000  1
  C  C20  1  0.17221000  0.12347000  0.36747000  1
  C  C21  1  0.82779000  0.87653000  0.63253000  1
  C  C22  1  0.32737000  0.61485000  0.13351000  1
  C  C23  1  0.67263000  0.38515000  0.86649000  1
  C  C24  1  0.15877000  0.07524000  0.45354000  1
  C  C25  1  0.84123000  0.92476000  0.54646000  1
  C  C26  1  0.07980000  0.03823000  0.47778000  1
  C  C27  1  0.92020000  0.96178000  0.52222000  1
  C  C28  1  0.01333000  0.05100000  0.41246000  1
  C  C29  1  0.98667000  0.94900000  0.58754000  1
  C  C30  1  0.06663000  0.98702000  0.56531000  1
  C  C31  1  0.93337000  0.01298000  0.43469000  1
  C  C32  1  0.41594000  0.98615000  0.58140000  1
  C  C33  1  0.58406000  0.01385000  0.41860000  1
  C  C34  1  0.08407000  0.48616000  0.91861000  1
  C  C35  1  0.91593000  0.51384000  0.08139000  1
