# generated using pymatgen
data_V
_symmetry_space_group_name_H-M   'P 1'
_cell_length_a   6.94349000
_cell_length_b   13.63256000
_cell_length_c   20.42528000
_cell_angle_alpha   102.13379000
_cell_angle_beta   89.61725000
_cell_angle_gamma   90.66425000
_symmetry_Int_Tables_number   1
_chemical_formula_structural   V
_chemical_formula_sum   V3
_cell_volume   1890.06862669
_cell_formula_units_Z   3
loop_
 _symmetry_equiv_pos_site_id
 _symmetry_equiv_pos_as_xyz
  1  'x, y, z'
loop_
 _atom_site_type_symbol
 _atom_site_label
 _atom_site_symmetry_multiplicity
 _atom_site_fract_x
 _atom_site_fract_y
 _atom_site_fract_z
 _atom_site_occupancy
  V  V0  1  0.06468000  0.51180000  0.50222000  1
  V  V1  1  0.56401000  0.48820000  0.49778000  1
  V  V2  1  0.64817000  0.98820000  0.99778000  1
