# generated using pymatgen
data_O2
_symmetry_space_group_name_H-M   'P 1'
_cell_length_a   6.94349000
_cell_length_b   13.63256000
_cell_length_c   20.42528000
_cell_angle_alpha   102.13379000
_cell_angle_beta   89.61725000
_cell_angle_gamma   90.66425000
_symmetry_Int_Tables_number   1
_chemical_formula_structural   O2
_chemical_formula_sum   O6
_cell_volume   1890.06862669
_cell_formula_units_Z   3
loop_
 _symmetry_equiv_pos_site_id
 _symmetry_equiv_pos_as_xyz
  1  'x, y, z'
loop_
 _atom_site_type_symbol
 _atom_site_label
 _atom_site_symmetry_multiplicity
 _atom_site_fract_x
 _atom_site_fract_y
 _atom_site_fract_z
 _atom_site_occupancy
  O  O0  1  0.50686000  0.59939000  0.44924000  1
  O  O1  1  0.50961000  0.58258000  0.58501000  1
  O  O2  1  0.33742000  0.43637000  0.48802000  1
  O  O3  1  0.67171000  0.40540000  0.41322000  1
  O  O4  1  0.67444000  0.38871000  0.54803000  1
  O  O5  1  0.84114000  0.56363000  0.51198000  1
