# generated using pymatgen
data_O2
_symmetry_space_group_name_H-M   'P 1'
_cell_length_a   28.02702000
_cell_length_b   7.22476000
_cell_length_c   17.19984000
_cell_angle_alpha   90.21883000
_cell_angle_beta   101.33720000
_cell_angle_gamma   89.80543000
_symmetry_Int_Tables_number   1
_chemical_formula_structural   O2
_chemical_formula_sum   O6
_cell_volume   3414.77387073
_cell_formula_units_Z   3
loop_
 _symmetry_equiv_pos_site_id
 _symmetry_equiv_pos_as_xyz
  1  'x, y, z'
loop_
 _atom_site_type_symbol
 _atom_site_label
 _atom_site_symmetry_multiplicity
 _atom_site_fract_x
 _atom_site_fract_y
 _atom_site_fract_z
 _atom_site_occupancy
  O  O0  1  0.99930000  0.93651000  0.64208000  1
  O  O1  1  0.93008000  0.76638000  0.72189000  1
  O  O2  1  0.99618000  0.76623000  0.86231000  1
  O  O3  1  0.06587000  0.93646000  0.78350000  1
  O  O4  1  0.02279000  0.60302000  0.72398000  1
  O  O5  1  0.97721000  0.10302000  0.77602000  1
