# generated using pymatgen
data_O2
_symmetry_space_group_name_H-M   'P 1'
_cell_length_a   20.05701000
_cell_length_b   7.25839000
_cell_length_c   13.67811000
_cell_angle_alpha   89.99954000
_cell_angle_beta   102.83552000
_cell_angle_gamma   90.00222000
_symmetry_Int_Tables_number   1
_chemical_formula_structural   O2
_chemical_formula_sum   O6
_cell_volume   1941.52265653
_cell_formula_units_Z   3
loop_
 _symmetry_equiv_pos_site_id
 _symmetry_equiv_pos_as_xyz
  1  'x, y, z'
loop_
 _atom_site_type_symbol
 _atom_site_label
 _atom_site_symmetry_multiplicity
 _atom_site_fract_x
 _atom_site_fract_y
 _atom_site_fract_z
 _atom_site_occupancy
  O  O0  1  0.44956000  0.50681000  0.59970000  1
  O  O1  1  0.41204000  0.68006000  0.40424000  1
  O  O2  1  0.54762000  0.67743000  0.38830000  1
  O  O3  1  0.58610000  0.50189000  0.58365000  1
  O  O4  1  0.48753000  0.33749000  0.43589000  1
  O  O5  1  0.51247000  0.83749000  0.56411000  1
