# generated using pymatgen
data_Co
_symmetry_space_group_name_H-M   'P 1'
_cell_length_a   19.92147000
_cell_length_b   21.59721000
_cell_length_c   22.76037000
_cell_angle_alpha   61.10607000
_cell_angle_beta   118.58683000
_cell_angle_gamma   133.21953000
_symmetry_Int_Tables_number   1
_chemical_formula_structural   Co
_chemical_formula_sum   Co4
_cell_volume   6078.37444926
_cell_formula_units_Z   4
loop_
 _symmetry_equiv_pos_site_id
 _symmetry_equiv_pos_as_xyz
  1  'x, y, z'
loop_
 _atom_site_type_symbol
 _atom_site_label
 _atom_site_symmetry_multiplicity
 _atom_site_fract_x
 _atom_site_fract_y
 _atom_site_fract_z
 _atom_site_occupancy
  Co  Co0  1  0.06715000  0.02406000  0.75187000  1
  Co  Co1  1  0.11883000  0.95087000  0.68986000  1
  Co  Co2  1  0.90050000  0.98795000  0.63358000  1
  Co  Co3  1  0.95922000  0.92433000  0.56880000  1
