# generated using pymatgen
data_H5C14O5
_symmetry_space_group_name_H-M   'P 1'
_cell_length_a   19.92147000
_cell_length_b   21.59721000
_cell_length_c   22.76037000
_cell_angle_alpha   61.10607000
_cell_angle_beta   118.58683000
_cell_angle_gamma   133.21953000
_symmetry_Int_Tables_number   1
_chemical_formula_structural   H5C14O5
_chemical_formula_sum   'H5 C14 O5'
_cell_volume   6078.37444926
_cell_formula_units_Z   1
loop_
 _symmetry_equiv_pos_site_id
 _symmetry_equiv_pos_as_xyz
  1  'x, y, z'
loop_
 _atom_site_type_symbol
 _atom_site_label
 _atom_site_symmetry_multiplicity
 _atom_site_fract_x
 _atom_site_fract_y
 _atom_site_fract_z
 _atom_site_occupancy
  H  H0  1  0.65328000  0.43957000  0.98853000  1
  H  H1  1  0.38675000  0.57436000  0.74585000  1
  H  H2  1  0.22862000  0.25078000  0.88499000  1
  H  H3  1  0.96359000  0.76547000  0.97722000  1
  H  H4  1  0.33836000  0.23472000  0.97856000  1
  C  C5  1  0.95127000  0.76748000  0.08883000  1
  C  C6  1  0.99013000  0.96039000  0.87562000  1
  C  C7  1  0.75132000  0.89225000  0.70607000  1
  C  C8  1  0.22436000  0.42643000  0.77709000  1
  C  C9  1  0.24166000  0.37162000  0.83981000  1
  C  C10  1  0.22811000  0.29933000  0.83781000  1
  C  C11  1  0.55711000  0.74970000  0.79434000  1
  C  C12  1  0.64089000  0.78097000  0.78455000  1
  C  C13  1  0.71110000  0.76751000  0.84633000  1
  C  C14  1  0.83875000  0.54309000  0.03775000  1
  C  C15  1  0.89014000  0.62699000  0.99418000  1
  C  C16  1  0.91791000  0.70069000  0.00647000  1
  C  C17  1  0.46634000  0.26299000  0.98136000  1
  C  C18  1  0.45379000  0.29601000  0.90362000  1
  O  O19  1  0.86488000  0.93043000  0.05174000  1
  O  O20  1  0.91438000  0.79835000  0.09284000  1
  O  O21  1  0.99873000  0.98258000  0.97085000  1
  O  O22  1  0.91731000  0.96327000  0.83925000  1
  O  O23  1  0.78647000  0.97122000  0.70422000  1
