# generated using pymatgen
data_HC2
_symmetry_space_group_name_H-M   'P 1'
_cell_length_a   19.92147000
_cell_length_b   21.59721000
_cell_length_c   22.76037000
_cell_angle_alpha   61.10607000
_cell_angle_beta   118.58683000
_cell_angle_gamma   133.21953000
_symmetry_Int_Tables_number   1
_chemical_formula_structural   HC2
_chemical_formula_sum   'H2 C4'
_cell_volume   6078.37444926
_cell_formula_units_Z   2
loop_
 _symmetry_equiv_pos_site_id
 _symmetry_equiv_pos_as_xyz
  1  'x, y, z'
loop_
 _atom_site_type_symbol
 _atom_site_label
 _atom_site_symmetry_multiplicity
 _atom_site_fract_x
 _atom_site_fract_y
 _atom_site_fract_z
 _atom_site_occupancy
  H  H0  1  0.60832000  0.21931000  0.48111000  1
  H  H1  1  0.69599000  0.17431000  0.60813000  1
  C  C2  1  0.74324000  0.32948000  0.51941000  1
  C  C3  1  0.64429000  0.27834000  0.49563000  1
  C  C4  1  0.74894000  0.20139000  0.58339000  1
  C  C5  1  0.79167000  0.28790000  0.54266000  1
