# generated using pymatgen
data_H7C20O13
_symmetry_space_group_name_H-M   'P 1'
_cell_length_a   19.92147000
_cell_length_b   21.59721000
_cell_length_c   22.76037000
_cell_angle_alpha   61.10607000
_cell_angle_beta   118.58683000
_cell_angle_gamma   133.21953000
_symmetry_Int_Tables_number   1
_chemical_formula_structural   H7C20O13
_chemical_formula_sum   'H7 C20 O13'
_cell_volume   6078.37444926
_cell_formula_units_Z   1
loop_
 _symmetry_equiv_pos_site_id
 _symmetry_equiv_pos_as_xyz
  1  'x, y, z'
loop_
 _atom_site_type_symbol
 _atom_site_label
 _atom_site_symmetry_multiplicity
 _atom_site_fract_x
 _atom_site_fract_y
 _atom_site_fract_z
 _atom_site_occupancy
  H  H0  1  0.07814000  0.34186000  0.12086000  1
  H  H1  1  0.09118000  0.62316000  0.23198000  1
  H  H2  1  0.90759000  0.46157000  0.04712000  1
  H  H3  1  0.13398000  0.52585000  0.28120000  1
  H  H4  1  0.67616000  0.72408000  0.33280000  1
  H  H5  1  0.77988000  0.69795000  0.43336000  1
  H  H6  1  0.96359000  0.76547000  0.97722000  1
  C  C7  1  0.01671000  0.00429000  0.36633000  1
  C  C8  1  0.03345000  0.98159000  0.44329000  1
  C  C9  1  0.06186000  0.20297000  0.22233000  1
  C  C10  1  0.19917000  0.88225000  0.23702000  1
  C  C11  1  0.20005000  0.80465000  0.28085000  1
  C  C12  1  0.12463000  0.72302000  0.26364000  1
  C  C13  1  0.80293000  0.06484000  0.09080000  1
  C  C14  1  0.95127000  0.76748000  0.08883000  1
  C  C15  1  0.87909000  0.75523000  0.54927000  1
  C  C16  1  0.16197000  0.44324000  0.24287000  1
  C  C17  1  0.12415000  0.42670000  0.17708000  1
  C  C18  1  0.11242000  0.49122000  0.11237000  1
  C  C19  1  0.81981000  0.29625000  0.04014000  1
  C  C20  1  0.83269000  0.28336000  0.99162000  1
  C  C21  1  0.82913000  0.20840000  0.00875000  1
  C  C22  1  0.80394000  0.14332000  0.07022000  1
  C  C23  1  0.81259000  0.53506000  0.09010000  1
  C  C24  1  0.83875000  0.54309000  0.03775000  1
  C  C25  1  0.89082000  0.69164000  0.05862000  1
  C  C26  1  0.82742000  0.60691000  0.09415000  1
  O  O27  1  0.06499000  0.91950000  0.98415000  1
  O  O28  1  0.08952000  0.96282000  0.11075000  1
  O  O29  1  0.10543000  0.97742000  0.48335000  1
  O  O30  1  0.96886000  0.15770000  0.19936000  1
  O  O31  1  0.23436000  0.92794000  0.18257000  1
  O  O32  1  0.15514000  0.90063000  0.24729000  1
  O  O33  1  0.94883000  0.01639000  0.19552000  1
  O  O34  1  0.77777000  0.00741000  0.14723000  1
  O  O35  1  0.85248000  0.06559000  0.06703000  1
  O  O36  1  0.97805000  0.04549000  0.32980000  1
  O  O37  1  0.80584000  0.89062000  0.26831000  1
  O  O38  1  0.99873000  0.98258000  0.97085000  1
  O  O39  1  0.94871000  0.80585000  0.51913000  1
