# generated using pymatgen
data_HC3O
_symmetry_space_group_name_H-M   'P 1'
_cell_length_a   19.92147000
_cell_length_b   21.59721000
_cell_length_c   22.76037000
_cell_angle_alpha   61.10607000
_cell_angle_beta   118.58683000
_cell_angle_gamma   133.21953000
_symmetry_Int_Tables_number   1
_chemical_formula_structural   HC3O
_chemical_formula_sum   'H6 C18 O6'
_cell_volume   6078.37444926
_cell_formula_units_Z   6
loop_
 _symmetry_equiv_pos_site_id
 _symmetry_equiv_pos_as_xyz
  1  'x, y, z'
loop_
 _atom_site_type_symbol
 _atom_site_label
 _atom_site_symmetry_multiplicity
 _atom_site_fract_x
 _atom_site_fract_y
 _atom_site_fract_z
 _atom_site_occupancy
  H  H0  1  0.98313000  0.60886000  0.72318000  1
  H  H1  1  0.18919000  0.45355000  0.66611000  1
  H  H2  1  0.86460000  0.44728000  0.55709000  1
  H  H3  1  0.15014000  0.47482000  0.80874000  1
  H  H4  1  0.95155000  0.29831000  0.51089000  1
  H  H5  1  0.78351000  0.47234000  0.64610000  1
  C  C6  1  0.04928000  0.55249000  0.69482000  1
  C  C7  1  0.10020000  0.60731000  0.74557000  1
  C  C8  1  0.13488000  0.18937000  0.77240000  1
  C  C9  1  0.19972000  0.34564000  0.71339000  1
  C  C10  1  0.20019000  0.34528000  0.64725000  1
  C  C11  1  0.74324000  0.32948000  0.51941000  1
  C  C12  1  0.73335000  0.43021000  0.53099000  1
  C  C13  1  0.26299000  0.51505000  0.77553000  1
  C  C14  1  0.21415000  0.52977000  0.79029000  1
  C  C15  1  0.88793000  0.13789000  0.60085000  1
  C  C16  1  0.87909000  0.75523000  0.54927000  1
  C  C17  1  0.19342000  0.63595000  0.78648000  1
  C  C18  1  0.79167000  0.28790000  0.54266000  1
  C  C19  1  0.86072000  0.32157000  0.51050000  1
  C  C20  1  0.90813000  0.41351000  0.46435000  1
  C  C21  1  0.80785000  0.66319000  0.54370000  1
  C  C22  1  0.79868000  0.59458000  0.60327000  1
  C  C23  1  0.78790000  0.52412000  0.60020000  1
  O  O24  1  0.06291000  0.13770000  0.80033000  1
  O  O25  1  0.05156000  0.77481000  0.65704000  1
  O  O26  1  0.15753000  0.15617000  0.75484000  1
  O  O27  1  0.97054000  0.02454000  0.70684000  1
  O  O28  1  0.94588000  0.15566000  0.66035000  1
  O  O29  1  0.94871000  0.80585000  0.51913000  1
