# generated using pymatgen
data_Mg3C13O7
_symmetry_space_group_name_H-M   'P 1'
_cell_length_a   6.96730000
_cell_length_b   15.32294000
_cell_length_c   15.34677000
_cell_angle_alpha   118.55320000
_cell_angle_beta   98.58661000
_cell_angle_gamma   98.60678000
_symmetry_Int_Tables_number   1
_chemical_formula_structural   Mg3C13O7
_chemical_formula_sum   'Mg3 C13 O7'
_cell_volume   1376.16349642
_cell_formula_units_Z   1
loop_
 _symmetry_equiv_pos_site_id
 _symmetry_equiv_pos_as_xyz
  1  'x, y, z'
loop_
 _atom_site_type_symbol
 _atom_site_label
 _atom_site_symmetry_multiplicity
 _atom_site_fract_x
 _atom_site_fract_y
 _atom_site_fract_z
 _atom_site_occupancy
  Mg  Mg0  1  0.21657000  0.32964000  0.73324000  1
  Mg  Mg1  1  0.51663000  0.73333000  0.40745000  1
  Mg  Mg2  1  0.10826000  0.58897000  0.32580000  1
  C  C3  1  0.17758000  0.82754000  0.43358000  1
  C  C4  1  0.74260000  0.56619000  0.39427000  1
  C  C5  1  0.64768000  0.39755000  0.82749000  1
  C  C6  1  0.08006000  0.91409000  0.46419000  1
  C  C7  1  0.92094000  0.08766000  0.53552000  1
  C  C8  1  0.61385000  0.53626000  0.44954000  1
  C  C9  1  0.83180000  0.45174000  0.91348000  1
  C  C10  1  0.86752000  0.89977000  0.43447000  1
  C  C11  1  0.13357000  0.10218000  0.56529000  1
  C  C12  1  0.43160000  0.56680000  0.46580000  1
  C  C13  1  0.02988000  0.46791000  0.89912000  1
  C  C14  1  0.79542000  0.98803000  0.47177000  1
  C  C15  1  0.20563000  0.01377000  0.52803000  1
  O  O16  1  0.36575000  0.84477000  0.46752000  1
  O  O17  1  0.89555000  0.53090000  0.37616000  1
  O  O18  1  0.47671000  0.37996000  0.84429000  1
  O  O19  1  0.73366000  0.80680000  0.37306000  1
  O  O20  1  0.26673000  0.19530000  0.62612000  1
  O  O21  1  0.36060000  0.62835000  0.43550000  1
  O  O22  1  0.07012000  0.43885000  0.80670000  1
