# generated using pymatgen
data_H3O8
_symmetry_space_group_name_H-M   'P 1'
_cell_length_a   6.96730000
_cell_length_b   15.32294000
_cell_length_c   15.34677000
_cell_angle_alpha   118.55320000
_cell_angle_beta   98.58661000
_cell_angle_gamma   98.60678000
_symmetry_Int_Tables_number   1
_chemical_formula_structural   H3O8
_chemical_formula_sum   'H3 O8'
_cell_volume   1376.16349642
_cell_formula_units_Z   1
loop_
 _symmetry_equiv_pos_site_id
 _symmetry_equiv_pos_as_xyz
  1  'x, y, z'
loop_
 _atom_site_type_symbol
 _atom_site_label
 _atom_site_symmetry_multiplicity
 _atom_site_fract_x
 _atom_site_fract_y
 _atom_site_fract_z
 _atom_site_occupancy
  H  H0  1  0.36648000  0.02301000  0.54992000  1
  H  H1  1  0.18227000  0.55202000  0.52874000  1
  H  H2  1  0.34204000  0.52963000  0.97795000  1
  O  O3  1  0.69584000  0.62873000  0.36533000  1
  O  O4  1  0.66500000  0.36882000  0.73527000  1
  O  O5  1  0.36575000  0.84477000  0.46752000  1
  O  O6  1  0.89555000  0.53090000  0.37616000  1
  O  O7  1  0.47671000  0.37996000  0.84429000  1
  O  O8  1  0.26673000  0.19530000  0.62612000  1
  O  O9  1  0.36060000  0.62835000  0.43550000  1
  O  O10  1  0.07012000  0.43885000  0.80670000  1
