# generated using pymatgen
data_Mg
_symmetry_space_group_name_H-M   'P 1'
_cell_length_a   6.96730000
_cell_length_b   15.32294000
_cell_length_c   15.34677000
_cell_angle_alpha   118.55320000
_cell_angle_beta   98.58661000
_cell_angle_gamma   98.60678000
_symmetry_Int_Tables_number   1
_chemical_formula_structural   Mg
_chemical_formula_sum   Mg3
_cell_volume   1376.16349642
_cell_formula_units_Z   3
loop_
 _symmetry_equiv_pos_site_id
 _symmetry_equiv_pos_as_xyz
  1  'x, y, z'
loop_
 _atom_site_type_symbol
 _atom_site_label
 _atom_site_symmetry_multiplicity
 _atom_site_fract_x
 _atom_site_fract_y
 _atom_site_fract_z
 _atom_site_occupancy
  Mg  Mg0  1  0.78339000  0.67398000  0.26668000  1
  Mg  Mg1  1  0.21657000  0.32964000  0.73324000  1
  Mg  Mg2  1  0.10826000  0.58897000  0.32580000  1
