# generated using pymatgen
data_O2
_symmetry_space_group_name_H-M   'P 1'
_cell_length_a   6.96730000
_cell_length_b   15.32294000
_cell_length_c   15.34677000
_cell_angle_alpha   118.55320000
_cell_angle_beta   98.58661000
_cell_angle_gamma   98.60678000
_symmetry_Int_Tables_number   1
_chemical_formula_structural   O2
_chemical_formula_sum   O4
_cell_volume   1376.16349642
_cell_formula_units_Z   2
loop_
 _symmetry_equiv_pos_site_id
 _symmetry_equiv_pos_as_xyz
  1  'x, y, z'
loop_
 _atom_site_type_symbol
 _atom_site_label
 _atom_site_symmetry_multiplicity
 _atom_site_fract_x
 _atom_site_fract_y
 _atom_site_fract_z
 _atom_site_occupancy
  O  O0  1  0.93184000  0.26665000  0.62872000  1
  O  O1  1  0.30154000  0.37212000  0.63308000  1
  O  O2  1  0.09847000  0.46887000  0.62276000  1
  O  O3  1  0.07012000  0.43885000  0.80670000  1
