# generated using pymatgen
data_Mg
_symmetry_space_group_name_H-M   'P 1'
_cell_length_a   11.58557000
_cell_length_b   11.58664000
_cell_length_c   18.09056000
_cell_angle_alpha   94.56651000
_cell_angle_beta   94.70014000
_cell_angle_gamma   116.32708000
_symmetry_Int_Tables_number   1
_chemical_formula_structural   Mg
_chemical_formula_sum   Mg4
_cell_volume   2150.87830717
_cell_formula_units_Z   4
loop_
 _symmetry_equiv_pos_site_id
 _symmetry_equiv_pos_as_xyz
  1  'x, y, z'
loop_
 _atom_site_type_symbol
 _atom_site_label
 _atom_site_symmetry_multiplicity
 _atom_site_fract_x
 _atom_site_fract_y
 _atom_site_fract_z
 _atom_site_occupancy
  Mg  Mg0  1  0.28048000  0.98096000  0.26159000  1
  Mg  Mg1  1  0.02194000  0.72151000  0.23883000  1
  Mg  Mg2  1  0.71952000  0.01904000  0.73841000  1
  Mg  Mg3  1  0.97807000  0.27848000  0.76117000  1
