# generated using pymatgen
data_AlH4C3O
_symmetry_space_group_name_H-M   'P 1'
_cell_length_a   11.92849000
_cell_length_b   12.10587000
_cell_length_c   12.10468000
_cell_angle_alpha   75.90722000
_cell_angle_beta   60.43189000
_cell_angle_gamma   60.44390000
_symmetry_Int_Tables_number   1
_chemical_formula_structural   AlH4C3O
_chemical_formula_sum   'Al1 H4 C3 O1'
_cell_volume   1322.49788468
_cell_formula_units_Z   1
loop_
 _symmetry_equiv_pos_site_id
 _symmetry_equiv_pos_as_xyz
  1  'x, y, z'
loop_
 _atom_site_type_symbol
 _atom_site_label
 _atom_site_symmetry_multiplicity
 _atom_site_fract_x
 _atom_site_fract_y
 _atom_site_fract_z
 _atom_site_occupancy
  Al  Al0  1  0.80806000  0.99997000  0.38385000  1
  H  H1  1  0.50993000  0.94105000  0.19655000  1
  H  H2  1  0.18919000  0.93580000  0.43600000  1
  H  H3  1  0.87507000  0.93581000  0.56395000  1
  H  H4  1  0.11018000  0.99999000  0.00015000  1
  C  C5  1  0.58262000  0.96884000  0.10999000  1
  C  C6  1  0.33021000  0.97247000  0.88877000  1
  C  C7  1  0.44859000  0.96890000  0.89004000  1
  O  O8  1  0.77307000  0.99938000  0.24524000  1
