# generated using pymatgen
data_PrH3C3O2
_symmetry_space_group_name_H-M   'P 1'
_cell_length_a   10.52800000
_cell_length_b   11.43267000
_cell_length_c   13.02387000
_cell_angle_alpha   107.78462000
_cell_angle_beta   89.71170000
_cell_angle_gamma   93.38109000
_symmetry_Int_Tables_number   1
_chemical_formula_structural   PrH3C3O2
_chemical_formula_sum   'Pr2 H6 C6 O4'
_cell_volume   1489.94370314
_cell_formula_units_Z   2
loop_
 _symmetry_equiv_pos_site_id
 _symmetry_equiv_pos_as_xyz
  1  'x, y, z'
loop_
 _atom_site_type_symbol
 _atom_site_label
 _atom_site_symmetry_multiplicity
 _atom_site_fract_x
 _atom_site_fract_y
 _atom_site_fract_z
 _atom_site_occupancy
  Pr  Pr0  1  0.48446000  0.44203000  0.34844000  1
  Pr  Pr1  1  0.51877000  0.56122000  0.65596000  1
  H  H2  1  0.31022000  0.91921000  0.30856000  1
  H  H3  1  0.30857000  0.71503000  0.16599000  1
  H  H4  1  0.39716000  0.69785000  0.98699000  1
  H  H5  1  0.68972000  0.08448000  0.69422000  1
  H  H6  1  0.69115000  0.28875000  0.83640000  1
  H  H7  1  0.60345000  0.30573000  0.01571000  1
  C  C8  1  0.49528000  0.24010000  0.16487000  1
  C  C9  1  0.50307000  0.87462000  0.49122000  1
  C  C10  1  0.38821000  0.93313000  0.51825000  1
  C  C11  1  0.50961000  0.76286000  0.83969000  1
  C  C12  1  0.49867000  0.12704000  0.51305000  1
  C  C13  1  0.61337000  0.06825000  0.48595000  1
  O  O14  1  0.38926000  0.29168000  0.19189000  1
  O  O15  1  0.48166000  0.66152000  0.39191000  1
  O  O16  1  0.61618000  0.71288000  0.81323000  1
  O  O17  1  0.52466000  0.34245000  0.60681000  1
