# generated using pymatgen
data_H12C9O29
_symmetry_space_group_name_H-M   'P 1'
_cell_length_a   11.58557000
_cell_length_b   11.58664000
_cell_length_c   18.09056000
_cell_angle_alpha   94.56651000
_cell_angle_beta   94.70014000
_cell_angle_gamma   116.32708000
_symmetry_Int_Tables_number   1
_chemical_formula_structural   H12C9O29
_chemical_formula_sum   'H12 C9 O29'
_cell_volume   2150.87830717
_cell_formula_units_Z   1
loop_
 _symmetry_equiv_pos_site_id
 _symmetry_equiv_pos_as_xyz
  1  'x, y, z'
loop_
 _atom_site_type_symbol
 _atom_site_label
 _atom_site_symmetry_multiplicity
 _atom_site_fract_x
 _atom_site_fract_y
 _atom_site_fract_z
 _atom_site_occupancy
  H  H0  1  0.85273000  0.73722000  0.07388000  1
  H  H1  1  0.33310000  0.73051000  0.06252000  1
  H  H2  1  0.26976000  0.78120000  0.20603000  1
  H  H3  1  0.51836000  0.15242000  0.16011000  1
  H  H4  1  0.26301000  0.14762000  0.42660000  1
  H  H5  1  0.84747000  0.48228000  0.33971000  1
  H  H6  1  0.14727000  0.26278000  0.92612000  1
  H  H7  1  0.66690000  0.26949000  0.93748000  1
  H  H8  1  0.73024000  0.21879000  0.79397000  1
  H  H9  1  0.48164000  0.84757000  0.83989000  1
  H  H10  1  0.73700000  0.85238000  0.57340000  1
  H  H11  1  0.15253000  0.51772000  0.66029000  1
  C  C12  1  0.42583000  0.86613000  0.00731000  1
  C  C13  1  0.52961000  0.09828000  0.06125000  1
  C  C14  1  0.13394000  0.57441000  0.49291000  1
  C  C15  1  0.90184000  0.47051000  0.43863000  1
  C  C16  1  0.94751000  0.09794000  0.86680000  1
  C  C17  1  0.57417000  0.13387000  0.99269000  1
  C  C18  1  0.47039000  0.90172000  0.93875000  1
  C  C19  1  0.86606000  0.42559000  0.50709000  1
  C  C20  1  0.09816000  0.52948000  0.56138000  1
  O  O21  1  0.15141000  0.97784000  0.18142000  1
  O  O22  1  0.97817000  0.78334000  0.14493000  1
  O  O23  1  0.81643000  0.75939000  0.02886000  1
  O  O24  1  0.41746000  0.01603000  0.19346000  1
  O  O25  1  0.33732000  0.80536000  0.14461000  1
  O  O26  1  0.35451000  0.73753000  0.01045000  1
  O  O27  1  0.23186000  0.15159000  0.09221000  1
  O  O28  1  0.56160000  0.19554000  0.11795000  1
  O  O29  1  0.02263000  0.84927000  0.31868000  1
  O  O30  1  0.21721000  0.02201000  0.35541000  1
  O  O31  1  0.24049000  0.18388000  0.47135000  1
  O  O32  1  0.98470000  0.58339000  0.30644000  1
  O  O33  1  0.26260000  0.64551000  0.48991000  1
  O  O34  1  0.84898000  0.76860000  0.40753000  1
  O  O35  1  0.80458000  0.43888000  0.38186000  1
  O  O36  1  0.84859000  0.02215000  0.81858000  1
  O  O37  1  0.02183000  0.21665000  0.85507000  1
  O  O38  1  0.18358000  0.24061000  0.97114000  1
  O  O39  1  0.58254000  0.98396000  0.80654000  1
  O  O40  1  0.66268000  0.19463000  0.85539000  1
  O  O41  1  0.64550000  0.26246000  0.98955000  1
  O  O42  1  0.76814000  0.84840000  0.90779000  1
  O  O43  1  0.43840000  0.80445000  0.88205000  1
  O  O44  1  0.78280000  0.97798000  0.64459000  1
  O  O45  1  0.75951000  0.81611000  0.52865000  1
  O  O46  1  0.01531000  0.41660000  0.69356000  1
  O  O47  1  0.73741000  0.35449000  0.51009000  1
  O  O48  1  0.15102000  0.23139000  0.59247000  1
  O  O49  1  0.19542000  0.56111000  0.61814000  1
