# generated using pymatgen
data_H3C4O5
_symmetry_space_group_name_H-M   'P 1'
_cell_length_a   11.92849000
_cell_length_b   12.10587000
_cell_length_c   12.10468000
_cell_angle_alpha   75.90722000
_cell_angle_beta   60.43189000
_cell_angle_gamma   60.44390000
_symmetry_Int_Tables_number   1
_chemical_formula_structural   H3C4O5
_chemical_formula_sum   'H6 C8 O10'
_cell_volume   1322.49788468
_cell_formula_units_Z   2
loop_
 _symmetry_equiv_pos_site_id
 _symmetry_equiv_pos_as_xyz
  1  'x, y, z'
loop_
 _atom_site_type_symbol
 _atom_site_label
 _atom_site_symmetry_multiplicity
 _atom_site_fract_x
 _atom_site_fract_y
 _atom_site_fract_z
 _atom_site_occupancy
  H  H0  1  0.50993000  0.94105000  0.19655000  1
  H  H1  1  0.20106000  0.69660000  0.55874000  1
  H  H2  1  0.10244000  0.69649000  0.44106000  1
  H  H3  1  0.54908000  0.94112000  0.80345000  1
  H  H4  1  0.88998000  0.99983000  0.99988000  1
  H  H5  1  0.11018000  0.99999000  0.00015000  1
  C  C6  1  0.70564000  0.95112000  0.23424000  1
  C  C7  1  0.69744000  0.97241000  0.11124000  1
  C  C8  1  0.58262000  0.96884000  0.10999000  1
  C  C9  1  0.40675000  0.73421000  0.54877000  1
  C  C10  1  0.85907000  0.73422000  0.45122000  1
  C  C11  1  0.33021000  0.97247000  0.88877000  1
  C  C12  1  0.44859000  0.96890000  0.89004000  1
  C  C13  1  0.79882000  0.99992000  0.99993000  1
  O  O14  1  0.64013000  0.88941000  0.31954000  1
  O  O15  1  0.77307000  0.99938000  0.24524000  1
  O  O16  1  0.27943000  0.81951000  0.61032000  1
  O  O17  1  0.52248000  0.74525000  0.50068000  1
  O  O18  1  0.90109000  0.81945000  0.38954000  1
  O  O19  1  0.73230000  0.74523000  0.49942000  1
  O  O20  1  0.47073000  0.88928000  0.68059000  1
  O  O21  1  0.22773000  0.99929000  0.75467000  1
  O  O22  1  0.62584000  0.99902000  0.49899000  1
  O  O23  1  0.37519000  0.99904000  0.50109000  1
