# generated using pymatgen
data_Al3H8C5O8
_symmetry_space_group_name_H-M   'P 1'
_cell_length_a   11.92849000
_cell_length_b   12.10587000
_cell_length_c   12.10468000
_cell_angle_alpha   75.90722000
_cell_angle_beta   60.43189000
_cell_angle_gamma   60.44390000
_symmetry_Int_Tables_number   1
_chemical_formula_structural   Al3H8C5O8
_chemical_formula_sum   'Al3 H8 C5 O8'
_cell_volume   1322.49788468
_cell_formula_units_Z   1
loop_
 _symmetry_equiv_pos_site_id
 _symmetry_equiv_pos_as_xyz
  1  'x, y, z'
loop_
 _atom_site_type_symbol
 _atom_site_label
 _atom_site_symmetry_multiplicity
 _atom_site_fract_x
 _atom_site_fract_y
 _atom_site_fract_z
 _atom_site_occupancy
  Al  Al0  1  0.19208000  0.99999000  0.61605000  1
  Al  Al1  1  0.80806000  0.99997000  0.38385000  1
  Al  Al2  1  0.55814000  0.88377000  0.50008000  1
  H  H3  1  0.50993000  0.94105000  0.19655000  1
  H  H4  1  0.20106000  0.69660000  0.55874000  1
  H  H5  1  0.10244000  0.69649000  0.44106000  1
  H  H6  1  0.54908000  0.94112000  0.80345000  1
  H  H7  1  0.18919000  0.93580000  0.43600000  1
  H  H8  1  0.87507000  0.93581000  0.56395000  1
  H  H9  1  0.88998000  0.99983000  0.99988000  1
  H  H10  1  0.11018000  0.99999000  0.00015000  1
  C  C11  1  0.69744000  0.97241000  0.11124000  1
  C  C12  1  0.58262000  0.96884000  0.10999000  1
  C  C13  1  0.33021000  0.97247000  0.88877000  1
  C  C14  1  0.44859000  0.96890000  0.89004000  1
  C  C15  1  0.79882000  0.99992000  0.99993000  1
  O  O16  1  0.64013000  0.88941000  0.31954000  1
  O  O17  1  0.77307000  0.99938000  0.24524000  1
  O  O18  1  0.27943000  0.81951000  0.61032000  1
  O  O19  1  0.90109000  0.81945000  0.38954000  1
  O  O20  1  0.47073000  0.88928000  0.68059000  1
  O  O21  1  0.22773000  0.99929000  0.75467000  1
  O  O22  1  0.62584000  0.99902000  0.49899000  1
  O  O23  1  0.37519000  0.99904000  0.50109000  1
