# generated using pymatgen
data_Pr2H11C11O5
_symmetry_space_group_name_H-M   'P 1'
_cell_length_a   10.52800000
_cell_length_b   11.43267000
_cell_length_c   13.02387000
_cell_angle_alpha   107.78462000
_cell_angle_beta   89.71170000
_cell_angle_gamma   93.38109000
_symmetry_Int_Tables_number   1
_chemical_formula_structural   Pr2H11C11O5
_chemical_formula_sum   'Pr2 H11 C11 O5'
_cell_volume   1489.94370314
_cell_formula_units_Z   1
loop_
 _symmetry_equiv_pos_site_id
 _symmetry_equiv_pos_as_xyz
  1  'x, y, z'
loop_
 _atom_site_type_symbol
 _atom_site_label
 _atom_site_symmetry_multiplicity
 _atom_site_fract_x
 _atom_site_fract_y
 _atom_site_fract_z
 _atom_site_occupancy
  Pr  Pr0  1  0.48446000  0.44203000  0.34844000  1
  Pr  Pr1  1  0.51877000  0.56122000  0.65596000  1
  H  H2  1  0.27386000  0.77055000  0.52520000  1
  H  H3  1  0.07523000  0.87669000  0.57181000  1
  H  H4  1  0.07205000  0.10166000  0.59580000  1
  H  H5  1  0.26682000  0.21983000  0.57122000  1
  H  H6  1  0.60455000  0.89765000  0.73203000  1
  H  H7  1  0.72721000  0.22996000  0.47717000  1
  H  H8  1  0.75785000  0.70534000  0.59378000  1
  H  H9  1  0.92462000  0.12269000  0.42761000  1
  H  H10  1  0.84379000  0.85531000  0.75948000  1
  H  H11  1  0.92771000  0.89771000  0.40344000  1
  H  H12  1  0.73365000  0.78071000  0.43079000  1
  C  C13  1  0.50664000  0.74118000  0.48277000  1
  C  C14  1  0.26215000  0.49297000  0.56845000  1
  C  C15  1  0.12707000  0.49370000  0.53551000  1
  C  C16  1  0.50961000  0.76286000  0.83969000  1
  C  C17  1  0.49573000  0.25970000  0.51812000  1
  C  C18  1  0.92456000  0.59575000  0.56161000  1
  C  C19  1  0.85228000  0.69525000  0.62227000  1
  C  C20  1  0.90132000  0.78115000  0.71420000  1
  C  C21  1  0.02691000  0.77342000  0.74958000  1
  C  C22  1  0.10101000  0.68083000  0.69265000  1
  C  C23  1  0.05302000  0.58893000  0.59751000  1
  O  O24  1  0.48166000  0.66152000  0.39191000  1
  O  O25  1  0.35000000  0.51448000  0.50402000  1
  O  O26  1  0.29327000  0.47992000  0.65725000  1
  O  O27  1  0.61618000  0.71288000  0.81323000  1
  O  O28  1  0.52466000  0.34245000  0.60681000  1
