# generated using pymatgen
data_O2
_symmetry_space_group_name_H-M   'P 1'
_cell_length_a   11.92849000
_cell_length_b   12.10587000
_cell_length_c   12.10468000
_cell_angle_alpha   75.90722000
_cell_angle_beta   60.43189000
_cell_angle_gamma   60.44390000
_symmetry_Int_Tables_number   1
_chemical_formula_structural   O2
_chemical_formula_sum   O6
_cell_volume   1322.49788468
_cell_formula_units_Z   3
loop_
 _symmetry_equiv_pos_site_id
 _symmetry_equiv_pos_as_xyz
  1  'x, y, z'
loop_
 _atom_site_type_symbol
 _atom_site_label
 _atom_site_symmetry_multiplicity
 _atom_site_fract_x
 _atom_site_fract_y
 _atom_site_fract_z
 _atom_site_occupancy
  O  O0  1  0.64013000  0.88941000  0.31954000  1
  O  O1  1  0.52248000  0.74525000  0.50068000  1
  O  O2  1  0.73230000  0.74523000  0.49942000  1
  O  O3  1  0.47073000  0.88928000  0.68059000  1
  O  O4  1  0.62584000  0.99902000  0.49899000  1
  O  O5  1  0.37519000  0.99904000  0.50109000  1
