# generated using pymatgen
data_H2C23O2
_symmetry_space_group_name_H-M   'P 1'
_cell_length_a   10.52800000
_cell_length_b   11.43267000
_cell_length_c   13.02387000
_cell_angle_alpha   107.78462000
_cell_angle_beta   89.71170000
_cell_angle_gamma   93.38109000
_symmetry_Int_Tables_number   1
_chemical_formula_structural   H2C23O2
_chemical_formula_sum   'H4 C46 O4'
_cell_volume   1489.94370314
_cell_formula_units_Z   2
loop_
 _symmetry_equiv_pos_site_id
 _symmetry_equiv_pos_as_xyz
  1  'x, y, z'
loop_
 _atom_site_type_symbol
 _atom_site_label
 _atom_site_symmetry_multiplicity
 _atom_site_fract_x
 _atom_site_fract_y
 _atom_site_fract_z
 _atom_site_occupancy
  H  H0  1  0.24548000  0.29479000  0.40868000  1
  H  H1  1  0.80606000  0.32213000  0.28121000  1
  H  H2  1  0.75785000  0.70534000  0.59378000  1
  H  H3  1  0.19709000  0.67769000  0.72132000  1
  C  C4  1  0.49528000  0.24010000  0.16487000  1
  C  C5  1  0.50664000  0.74118000  0.48277000  1
  C  C6  1  0.49760000  0.11748000  0.08064000  1
  C  C7  1  0.50307000  0.87462000  0.49122000  1
  C  C8  1  0.12707000  0.49370000  0.53551000  1
  C  C9  1  0.44650000  0.01204000  0.10458000  1
  C  C10  1  0.38821000  0.93313000  0.51825000  1
  C  C11  1  0.07880000  0.40440000  0.44089000  1
  C  C12  1  0.39535000  0.01774000  0.20784000  1
  C  C13  1  0.27317000  0.86840000  0.53429000  1
  C  C14  1  0.15104000  0.30496000  0.38021000  1
  C  C15  1  0.34732000  0.91322000  0.22910000  1
  C  C16  1  0.16201000  0.92754000  0.56017000  1
  C  C17  1  0.10203000  0.21930000  0.28807000  1
  C  C18  1  0.34764000  0.79688000  0.14829000  1
  C  C19  1  0.16013000  0.05562000  0.57319000  1
  C  C20  1  0.97645000  0.22690000  0.25249000  1
  C  C21  1  0.39759000  0.78708000  0.04851000  1
  C  C22  1  0.26891000  0.12138000  0.55871000  1
  C  C23  1  0.90231000  0.31932000  0.30971000  1
  C  C24  1  0.44941000  0.89329000  0.02319000  1
  C  C25  1  0.38593000  0.06304000  0.52989000  1
  C  C26  1  0.95033000  0.41118000  0.40500000  1
  C  C27  1  0.50961000  0.76286000  0.83969000  1
  C  C28  1  0.49573000  0.25970000  0.51812000  1
  C  C29  1  0.50538000  0.88584000  0.92287000  1
  C  C30  1  0.49867000  0.12704000  0.51305000  1
  C  C31  1  0.87649000  0.50676000  0.46678000  1
  C  C32  1  0.55594000  0.99129000  0.89873000  1
  C  C33  1  0.61337000  0.06825000  0.48595000  1
  C  C34  1  0.92456000  0.59575000  0.56161000  1
  C  C35  1  0.60630000  0.98572000  0.79527000  1
  C  C36  1  0.72806000  0.13229000  0.46854000  1
  C  C37  1  0.85228000  0.69525000  0.62227000  1
  C  C38  1  0.65320000  0.09044000  0.77379000  1
  C  C39  1  0.83845000  0.07239000  0.44097000  1
  C  C40  1  0.90132000  0.78115000  0.71420000  1
  C  C41  1  0.65263000  0.20687000  0.85439000  1
  C  C42  1  0.84035000  0.94437000  0.42789000  1
  C  C43  1  0.02691000  0.77342000  0.74958000  1
  C  C44  1  0.60354000  0.21642000  0.95441000  1
  C  C45  1  0.73197000  0.87929000  0.44398000  1
  C  C46  1  0.10101000  0.68083000  0.69265000  1
  C  C47  1  0.55284000  0.11005000  0.98004000  1
  C  C48  1  0.61566000  0.93842000  0.47413000  1
  C  C49  1  0.05302000  0.58893000  0.59751000  1
  O  O50  1  0.59974000  0.29238000  0.21120000  1
  O  O51  1  0.53601000  0.71561000  0.56858000  1
  O  O52  1  0.40561000  0.70808000  0.79370000  1
  O  O53  1  0.46368000  0.28116000  0.43132000  1
