# generated using pymatgen
data_H5C7O2
_symmetry_space_group_name_H-M   'P 1'
_cell_length_a   9.89239000
_cell_length_b   10.00338000
_cell_length_c   19.38766000
_cell_angle_alpha   108.49933000
_cell_angle_beta   106.71269000
_cell_angle_gamma   76.14382000
_symmetry_Int_Tables_number   1
_chemical_formula_structural   H5C7O2
_chemical_formula_sum   'H10 C14 O4'
_cell_volume   1719.19436006
_cell_formula_units_Z   2
loop_
 _symmetry_equiv_pos_site_id
 _symmetry_equiv_pos_as_xyz
  1  'x, y, z'
loop_
 _atom_site_type_symbol
 _atom_site_label
 _atom_site_symmetry_multiplicity
 _atom_site_fract_x
 _atom_site_fract_y
 _atom_site_fract_z
 _atom_site_occupancy
  H  H0  1  0.67717000  0.13656000  0.92352000  1
  H  H1  1  0.73815000  0.16731000  0.03281000  1
  H  H2  1  0.80776000  0.23162000  0.16845000  1
  H  H3  1  0.45796000  0.22584000  0.28069000  1
  H  H4  1  0.35438000  0.01918000  0.72553000  1
  H  H5  1  0.32283000  0.86345000  0.07648000  1
  H  H6  1  0.26186000  0.83270000  0.96720000  1
  H  H7  1  0.19225000  0.76838000  0.83155000  1
  H  H8  1  0.54204000  0.77417000  0.71932000  1
  H  H9  1  0.64563000  0.98083000  0.27447000  1
  C  C10  1  0.69483000  0.23233000  0.14125000  1
  C  C11  1  0.55091000  0.27882000  0.30867000  1
  C  C12  1  0.13318000  0.06068000  0.79171000  1
  C  C13  1  0.28318000  0.08346000  0.82855000  1
  C  C14  1  0.38406000  0.05730000  0.78606000  1
  C  C15  1  0.59279000  0.26365000  0.18535000  1
  C  C16  1  0.63386000  0.30335000  0.26641000  1
  C  C17  1  0.86683000  0.93933000  0.20829000  1
  C  C18  1  0.71682000  0.91655000  0.17145000  1
  C  C19  1  0.30517000  0.76767000  0.85876000  1
  C  C20  1  0.44910000  0.72119000  0.69134000  1
  C  C21  1  0.61595000  0.94270000  0.21395000  1
  C  C22  1  0.40721000  0.73636000  0.81466000  1
  C  C23  1  0.36614000  0.69665000  0.73359000  1
  O  O24  1  0.74833000  0.10701000  0.81142000  1
  O  O25  1  0.04503000  0.08233000  0.83202000  1
  O  O26  1  0.95497000  0.91768000  0.16798000  1
  O  O27  1  0.25167000  0.89300000  0.18859000  1
