# generated using pymatgen
data_H5(C3O5)2
_symmetry_space_group_name_H-M   'P 1'
_cell_length_a   9.58943000
_cell_length_b   15.31985000
_cell_length_c   21.55524000
_cell_angle_alpha   89.98644000
_cell_angle_beta   98.50001000
_cell_angle_gamma   89.94256000
_symmetry_Int_Tables_number   1
_chemical_formula_structural   H5(C3O5)2
_chemical_formula_sum   'H5 C6 O10'
_cell_volume   3131.86594290
_cell_formula_units_Z   1
loop_
 _symmetry_equiv_pos_site_id
 _symmetry_equiv_pos_as_xyz
  1  'x, y, z'
loop_
 _atom_site_type_symbol
 _atom_site_label
 _atom_site_symmetry_multiplicity
 _atom_site_fract_x
 _atom_site_fract_y
 _atom_site_fract_z
 _atom_site_occupancy
  H  H0  1  0.44930000  0.49338000  0.20953000  1
  H  H1  1  0.24987000  0.34470000  0.45433000  1
  H  H2  1  0.55071000  0.50662000  0.79047000  1
  H  H3  1  0.75013000  0.65530000  0.54567000  1
  H  H4  1  0.24964000  0.33770000  0.56881000  1
  C  C5  1  0.91046000  0.56450000  0.36332000  1
  C  C6  1  0.17975000  0.38684000  0.47621000  1
  C  C7  1  0.82016000  0.61685000  0.45957000  1
  C  C8  1  0.90850000  0.56158000  0.42973000  1
  C  C9  1  0.82026000  0.61316000  0.52379000  1
  C  C10  1  0.17985000  0.38315000  0.54043000  1
  O  O11  1  0.34028000  0.35079000  0.20348000  1
  O  O12  1  0.44460000  0.65790000  0.21905000  1
  O  O13  1  0.12605000  0.33767000  0.30096000  1
  O  O14  1  0.31411000  0.41310000  0.35013000  1
  O  O15  1  0.68003000  0.60049000  0.31883000  1
  O  O16  1  0.65973000  0.64921000  0.79653000  1
  O  O17  1  0.55541000  0.34210000  0.78096000  1
  O  O18  1  0.87396000  0.66232000  0.69905000  1
  O  O19  1  0.68589000  0.58690000  0.64987000  1
  O  O20  1  0.31998000  0.39951000  0.68117000  1
