# generated using pymatgen
data_C
_symmetry_space_group_name_H-M   'P 1'
_cell_length_a   11.06071000
_cell_length_b   12.95714000
_cell_length_c   19.39253000
_cell_angle_alpha   102.77740000
_cell_angle_beta   89.98469000
_cell_angle_gamma   90.13433000
_symmetry_Int_Tables_number   1
_chemical_formula_structural   C
_chemical_formula_sum   C4
_cell_volume   2710.41281809
_cell_formula_units_Z   4
loop_
 _symmetry_equiv_pos_site_id
 _symmetry_equiv_pos_as_xyz
  1  'x, y, z'
loop_
 _atom_site_type_symbol
 _atom_site_label
 _atom_site_symmetry_multiplicity
 _atom_site_fract_x
 _atom_site_fract_y
 _atom_site_fract_z
 _atom_site_occupancy
  C  C0  1  0.44990000  0.18881000  0.90978000  1
  C  C1  1  0.69880000  0.13337000  0.73043000  1
  C  C2  1  0.71658000  0.04283000  0.75761000  1
  C  C3  1  0.74531000  0.05055000  0.83418000  1
