# generated using pymatgen
data_O2
_symmetry_space_group_name_H-M   'P 1'
_cell_length_a   9.89239000
_cell_length_b   10.00338000
_cell_length_c   19.38766000
_cell_angle_alpha   108.49933000
_cell_angle_beta   106.71269000
_cell_angle_gamma   76.14382000
_symmetry_Int_Tables_number   1
_chemical_formula_structural   O2
_chemical_formula_sum   O8
_cell_volume   1719.19436006
_cell_formula_units_Z   4
loop_
 _symmetry_equiv_pos_site_id
 _symmetry_equiv_pos_as_xyz
  1  'x, y, z'
loop_
 _atom_site_type_symbol
 _atom_site_label
 _atom_site_symmetry_multiplicity
 _atom_site_fract_x
 _atom_site_fract_y
 _atom_site_fract_z
 _atom_site_occupancy
  O  O0  1  0.95497000  0.91768000  0.16798000  1
  O  O1  1  0.90325000  0.97898000  0.27999000  1
  O  O2  1  0.25167000  0.89300000  0.18859000  1
  O  O3  1  0.40047000  0.99629000  0.29338000  1
  O  O4  1  0.10789000  0.19888000  0.27074000  1
  O  O5  1  0.16865000  0.15497000  0.38265000  1
  O  O6  1  0.21593000  0.84708000  0.36408000  1
  O  O7  1  0.14296000  0.68148000  0.25702000  1
