# generated using pymatgen
data_HC15N2O
_symmetry_space_group_name_H-M   'P 1'
_cell_length_a   10.50684000
_cell_length_b   10.52222000
_cell_length_c   12.52831000
_cell_angle_alpha   81.43790000
_cell_angle_beta   81.30540000
_cell_angle_gamma   74.72438000
_symmetry_Int_Tables_number   1
_chemical_formula_structural   HC15N2O
_chemical_formula_sum   'H2 C30 N4 O2'
_cell_volume   1312.11553358
_cell_formula_units_Z   2
loop_
 _symmetry_equiv_pos_site_id
 _symmetry_equiv_pos_as_xyz
  1  'x, y, z'
loop_
 _atom_site_type_symbol
 _atom_site_label
 _atom_site_symmetry_multiplicity
 _atom_site_fract_x
 _atom_site_fract_y
 _atom_site_fract_z
 _atom_site_occupancy
  H  H0  1  0.80252000  0.64857000  0.85191000  1
  H  H1  1  0.19772000  0.35164000  0.14799000  1
  C  C2  1  0.29789000  0.03866000  0.35110000  1
  C  C3  1  0.29544000  0.02196000  0.46313000  1
  C  C4  1  0.30626000  0.12876000  0.51651000  1
  C  C5  1  0.30738000  0.25477000  0.45544000  1
  C  C6  1  0.30745000  0.27062000  0.34374000  1
  C  C7  1  0.30624000  0.16149000  0.29101000  1
  C  C8  1  0.31917000  0.40042000  0.27847000  1
  C  C9  1  0.36468000  0.98978000  0.68845000  1
  C  C10  1  0.26520000  0.90545000  0.71782000  1
  C  C11  1  0.12763000  0.95755000  0.73417000  1
  C  C12  1  0.31691000  0.76787000  0.73293000  1
  C  C13  1  0.01077000  0.63565000  0.81152000  1
  C  C14  1  0.09481000  0.73543000  0.78214000  1
  C  C15  1  0.04254000  0.87275000  0.76594000  1
  C  C16  1  0.23267000  0.68387000  0.76660000  1
  C  C17  1  0.70222000  0.96145000  0.64880000  1
  C  C18  1  0.70464000  0.97823000  0.53677000  1
  C  C19  1  0.69381000  0.87149000  0.48333000  1
  C  C20  1  0.69292000  0.74539000  0.54439000  1
  C  C21  1  0.69288000  0.72941000  0.65613000  1
  C  C22  1  0.69397000  0.83857000  0.70888000  1
  C  C23  1  0.68093000  0.59968000  0.72152000  1
  C  C24  1  0.63526000  0.01083000  0.31147000  1
  C  C25  1  0.73485000  0.09507000  0.28205000  1
  C  C26  1  0.87240000  0.04291000  0.26565000  1
  C  C27  1  0.68322000  0.23267000  0.26686000  1
  C  C28  1  0.98956000  0.36463000  0.18839000  1
  C  C29  1  0.90539000  0.26498000  0.21776000  1
  C  C30  1  0.95757000  0.12764000  0.23391000  1
  C  C31  1  0.76754000  0.31661000  0.23322000  1
  N  N32  1  0.32386000  0.11604000  0.62262000  1
  N  N33  1  0.88395000  0.67559000  0.87757000  1
  N  N34  1  0.67592000  0.88445000  0.37725000  1
  N  N35  1  0.11635000  0.32457000  0.12234000  1
  O  O36  1  0.29968000  0.41810000  0.17932000  1
  O  O37  1  0.70066000  0.58194000  0.82062000  1
