# generated using pymatgen
data_C
_symmetry_space_group_name_H-M   'P 1'
_cell_length_a   9.89239000
_cell_length_b   10.00338000
_cell_length_c   19.38766000
_cell_angle_alpha   108.49933000
_cell_angle_beta   106.71269000
_cell_angle_gamma   76.14382000
_symmetry_Int_Tables_number   1
_chemical_formula_structural   C
_chemical_formula_sum   C38
_cell_volume   1719.19436006
_cell_formula_units_Z   38
loop_
 _symmetry_equiv_pos_site_id
 _symmetry_equiv_pos_as_xyz
  1  'x, y, z'
loop_
 _atom_site_type_symbol
 _atom_site_label
 _atom_site_symmetry_multiplicity
 _atom_site_fract_x
 _atom_site_fract_y
 _atom_site_fract_z
 _atom_site_occupancy
  C  C0  1  0.62877000  0.06138000  0.77570000  1
  C  C1  1  0.52455000  0.08043000  0.82169000  1
  C  C2  1  0.56592000  0.12317000  0.89925000  1
  C  C3  1  0.55091000  0.27882000  0.30867000  1
  C  C4  1  0.58974000  0.31374000  0.38562000  1
  C  C5  1  0.13318000  0.06068000  0.79171000  1
  C  C6  1  0.28318000  0.08346000  0.82855000  1
  C  C7  1  0.40791000  0.21918000  0.06962000  1
  C  C8  1  0.44775000  0.25409000  0.14667000  1
  C  C9  1  0.75808000  0.36677000  0.30559000  1
  C  C10  1  0.38406000  0.05730000  0.78606000  1
  C  C11  1  0.46667000  0.14670000  0.94370000  1
  C  C12  1  0.50988000  0.18793000  0.02538000  1
  C  C13  1  0.59279000  0.26365000  0.18535000  1
  C  C14  1  0.63386000  0.30335000  0.26641000  1
  C  C15  1  0.74838000  0.42909000  0.50600000  1
  C  C16  1  0.78758000  0.56491000  0.54250000  1
  C  C17  1  0.82498000  0.61084000  0.62047000  1
  C  C18  1  0.85288000  0.76010000  0.65773000  1
  C  C19  1  0.86683000  0.93933000  0.20829000  1
  C  C20  1  0.71682000  0.91655000  0.17145000  1
  C  C21  1  0.59210000  0.78082000  0.93038000  1
  C  C22  1  0.55225000  0.74592000  0.85333000  1
  C  C23  1  0.24192000  0.63323000  0.69441000  1
  C  C24  1  0.37124000  0.93862000  0.22431000  1
  C  C25  1  0.47545000  0.91957000  0.17831000  1
  C  C26  1  0.43409000  0.87683000  0.10075000  1
  C  C27  1  0.44910000  0.72119000  0.69134000  1
  C  C28  1  0.41026000  0.68626000  0.61438000  1
  C  C29  1  0.61595000  0.94270000  0.21395000  1
  C  C30  1  0.53334000  0.85330000  0.05631000  1
  C  C31  1  0.49012000  0.81207000  0.97462000  1
  C  C32  1  0.40721000  0.73636000  0.81466000  1
  C  C33  1  0.36614000  0.69665000  0.73359000  1
  C  C34  1  0.25162000  0.57092000  0.49401000  1
  C  C35  1  0.21242000  0.43510000  0.45750000  1
  C  C36  1  0.17502000  0.38917000  0.37953000  1
  C  C37  1  0.14712000  0.23990000  0.34227000  1
