# generated using pymatgen
data_Zn4C37O13
_symmetry_space_group_name_H-M   'P 1'
_cell_length_a   11.06071000
_cell_length_b   12.95714000
_cell_length_c   19.39253000
_cell_angle_alpha   102.77740000
_cell_angle_beta   89.98469000
_cell_angle_gamma   90.13433000
_symmetry_Int_Tables_number   1
_chemical_formula_structural   Zn4C37O13
_chemical_formula_sum   'Zn4 C37 O13'
_cell_volume   2710.41281809
_cell_formula_units_Z   1
loop_
 _symmetry_equiv_pos_site_id
 _symmetry_equiv_pos_as_xyz
  1  'x, y, z'
loop_
 _atom_site_type_symbol
 _atom_site_label
 _atom_site_symmetry_multiplicity
 _atom_site_fract_x
 _atom_site_fract_y
 _atom_site_fract_z
 _atom_site_occupancy
  Zn  Zn0  1  0.18508000  0.83558000  0.02952000  1
  Zn  Zn1  1  0.68774000  0.66461000  0.47091000  1
  Zn  Zn2  1  0.81491000  0.16442000  0.97048000  1
  Zn  Zn3  1  0.31225000  0.33540000  0.52909000  1
  C  C4  1  0.28811000  0.08282000  0.94277000  1
  C  C5  1  0.41222000  0.10365000  0.93749000  1
  C  C6  1  0.44990000  0.18881000  0.90978000  1
  C  C7  1  0.36542000  0.25370000  0.88643000  1
  C  C8  1  0.24214000  0.23324000  0.89183000  1
  C  C9  1  0.20178000  0.14894000  0.92066000  1
  C  C10  1  0.18134000  0.37879000  0.84204000  1
  C  C11  1  0.20141000  0.36683000  0.76973000  1
  C  C12  1  0.21865000  0.45753000  0.74256000  1
  C  C13  1  0.24741000  0.44995000  0.66600000  1
  C  C14  1  0.06747000  0.12860000  0.92096000  1
  C  C15  1  0.73963000  0.26676000  0.60850000  1
  C  C16  1  0.70048000  0.35131000  0.57963000  1
  C  C17  1  0.67849000  0.12133000  0.65813000  1
  C  C18  1  0.69880000  0.13337000  0.73043000  1
  C  C19  1  0.71658000  0.04283000  0.75761000  1
  C  C20  1  0.74531000  0.05055000  0.83418000  1
  C  C21  1  0.56610000  0.37172000  0.57872000  1
  C  C22  1  0.75064000  0.00865000  0.02779000  1
  C  C23  1  0.71188000  0.91718000  0.05723000  1
  C  C24  1  0.58777000  0.89635000  0.06251000  1
  C  C25  1  0.55009000  0.81119000  0.09022000  1
  C  C26  1  0.63457000  0.74630000  0.11357000  1
  C  C27  1  0.75785000  0.76676000  0.10817000  1
  C  C28  1  0.79821000  0.85106000  0.07934000  1
  C  C29  1  0.81865000  0.62121000  0.15796000  1
  C  C30  1  0.79858000  0.63317000  0.23027000  1
  C  C31  1  0.78134000  0.54248000  0.25744000  1
  C  C32  1  0.75258000  0.55006000  0.33400000  1
  C  C33  1  0.93252000  0.87140000  0.07904000  1
  C  C34  1  0.26036000  0.73324000  0.39150000  1
  C  C35  1  0.29951000  0.64869000  0.42037000  1
  C  C36  1  0.32150000  0.87867000  0.34188000  1
  C  C37  1  0.30119000  0.86664000  0.26957000  1
  C  C38  1  0.28341000  0.95718000  0.24239000  1
  C  C39  1  0.25468000  0.94945000  0.16582000  1
  C  C40  1  0.43389000  0.62828000  0.42128000  1
  O  O41  1  0.15137000  0.29023000  0.86847000  1
  O  O42  1  0.25337000  0.35571000  0.62658000  1
  O  O43  1  0.00559000  0.18376000  0.97279000  1
  O  O44  1  0.64830000  0.20970000  0.63163000  1
  O  O45  1  0.75135000  0.14471000  0.87374000  1
  O  O46  1  0.50444000  0.31706000  0.52642000  1
  O  O47  1  0.67765000  0.07798000  0.01743000  1
  O  O48  1  0.84862000  0.70977000  0.13153000  1
  O  O49  1  0.74662000  0.64429000  0.37342000  1
  O  O50  1  0.99440000  0.81624000  0.02721000  1
  O  O51  1  0.35169000  0.79030000  0.36837000  1
  O  O52  1  0.24864000  0.85529000  0.12626000  1
  O  O53  1  0.49555000  0.68294000  0.47358000  1
