# generated using pymatgen
data_C
_symmetry_space_group_name_H-M   'P 1'
_cell_length_a   10.50684000
_cell_length_b   10.52222000
_cell_length_c   12.52831000
_cell_angle_alpha   81.43790000
_cell_angle_beta   81.30540000
_cell_angle_gamma   74.72438000
_symmetry_Int_Tables_number   1
_chemical_formula_structural   C
_chemical_formula_sum   C5
_cell_volume   1312.11553358
_cell_formula_units_Z   5
loop_
 _symmetry_equiv_pos_site_id
 _symmetry_equiv_pos_as_xyz
  1  'x, y, z'
loop_
 _atom_site_type_symbol
 _atom_site_label
 _atom_site_symmetry_multiplicity
 _atom_site_fract_x
 _atom_site_fract_y
 _atom_site_fract_z
 _atom_site_occupancy
  C  C0  1  0.30626000  0.12876000  0.51651000  1
  C  C1  1  0.30738000  0.25477000  0.45544000  1
  C  C2  1  0.30745000  0.27062000  0.34374000  1
  C  C3  1  0.30624000  0.16149000  0.29101000  1
  C  C4  1  0.63526000  0.01083000  0.31147000  1
