# generated using pymatgen
data_LiZn
_symmetry_space_group_name_H-M   'P 1'
_cell_length_a   9.58943000
_cell_length_b   15.31985000
_cell_length_c   21.55524000
_cell_angle_alpha   89.98644000
_cell_angle_beta   98.50001000
_cell_angle_gamma   89.94256000
_symmetry_Int_Tables_number   1
_chemical_formula_structural   LiZn
_chemical_formula_sum   'Li2 Zn2'
_cell_volume   3131.86594290
_cell_formula_units_Z   2
loop_
 _symmetry_equiv_pos_site_id
 _symmetry_equiv_pos_as_xyz
  1  'x, y, z'
loop_
 _atom_site_type_symbol
 _atom_site_label
 _atom_site_symmetry_multiplicity
 _atom_site_fract_x
 _atom_site_fract_y
 _atom_site_fract_z
 _atom_site_occupancy
  Li  Li0  1  0.49654000  0.15977000  0.19482000  1
  Li  Li1  1  0.50347000  0.84023000  0.80518000  1
  Zn  Zn2  1  0.26554000  0.26899000  0.26076000  1
  Zn  Zn3  1  0.26533000  0.23218000  0.76089000  1
