# generated using pymatgen
data_C
_symmetry_space_group_name_H-M   'P 1'
_cell_length_a   9.58943000
_cell_length_b   15.31985000
_cell_length_c   21.55524000
_cell_angle_alpha   89.98644000
_cell_angle_beta   98.50001000
_cell_angle_gamma   89.94256000
_symmetry_Int_Tables_number   1
_chemical_formula_structural   C
_chemical_formula_sum   C18
_cell_volume   3131.86594290
_cell_formula_units_Z   18
loop_
 _symmetry_equiv_pos_site_id
 _symmetry_equiv_pos_as_xyz
  1  'x, y, z'
loop_
 _atom_site_type_symbol
 _atom_site_label
 _atom_site_symmetry_multiplicity
 _atom_site_fract_x
 _atom_site_fract_y
 _atom_site_fract_z
 _atom_site_occupancy
  C  C0  1  0.42015000  0.33611000  0.16175000  1
  C  C1  1  0.52356000  0.64940000  0.17788000  1
  C  C2  1  0.53325000  0.65723000  0.03846000  1
  C  C3  1  0.45775000  0.33998000  0.02460000  1
  C  C4  1  0.80769000  0.62136000  0.32208000  1
  C  C5  1  0.57976000  0.83600000  0.33819000  1
  C  C6  1  0.53687000  0.99504000  0.33944000  1
  C  C7  1  0.47620000  0.14981000  0.32216000  1
  C  C8  1  0.19229000  0.12240000  0.17776000  1
  C  C9  1  0.57985000  0.66389000  0.83825000  1
  C  C10  1  0.47644000  0.35060000  0.82213000  1
  C  C11  1  0.46675000  0.34277000  0.96154000  1
  C  C12  1  0.54226000  0.66002000  0.97540000  1
  C  C13  1  0.19232000  0.37864000  0.67792000  1
  C  C14  1  0.42025000  0.16399000  0.66181000  1
  C  C15  1  0.46314000  0.00496000  0.66056000  1
  C  C16  1  0.52381000  0.85018000  0.67784000  1
  C  C17  1  0.80771000  0.87760000  0.82225000  1
