# generated using pymatgen
data_Ba2Zn(CO3)2
_symmetry_space_group_name_H-M   'P 1'
_cell_length_a   11.06071000
_cell_length_b   12.95714000
_cell_length_c   19.39253000
_cell_angle_alpha   102.77740000
_cell_angle_beta   89.98469000
_cell_angle_gamma   90.13433000
_symmetry_Int_Tables_number   1
_chemical_formula_structural   Ba2Zn(CO3)2
_chemical_formula_sum   'Ba2 Zn1 C2 O6'
_cell_volume   2710.41281809
_cell_formula_units_Z   1
loop_
 _symmetry_equiv_pos_site_id
 _symmetry_equiv_pos_as_xyz
  1  'x, y, z'
loop_
 _atom_site_type_symbol
 _atom_site_label
 _atom_site_symmetry_multiplicity
 _atom_site_fract_x
 _atom_site_fract_y
 _atom_site_fract_z
 _atom_site_occupancy
  Ba  Ba0  1  0.04329000  0.12144000  0.10230000  1
  Ba  Ba1  1  0.95670000  0.87856000  0.89771000  1
  Zn  Zn2  1  0.18508000  0.83558000  0.02952000  1
  C  C3  1  0.93252000  0.87140000  0.07904000  1
  C  C4  1  0.25468000  0.94945000  0.16582000  1
  O  O5  1  0.13506000  0.98422000  0.98874000  1
  O  O6  1  0.86493000  0.01578000  0.01126000  1
  O  O7  1  0.97621000  0.93950000  0.12923000  1
  O  O8  1  0.99440000  0.81624000  0.02721000  1
  O  O9  1  0.24864000  0.85529000  0.12626000  1
  O  O10  1  0.23613000  0.03426000  0.14544000  1
