# generated using pymatgen
data_BaH3C7O4
_symmetry_space_group_name_H-M   'P 1'
_cell_length_a   11.06071000
_cell_length_b   12.95714000
_cell_length_c   19.39253000
_cell_angle_alpha   102.77740000
_cell_angle_beta   89.98469000
_cell_angle_gamma   90.13433000
_symmetry_Int_Tables_number   1
_chemical_formula_structural   BaH3C7O4
_chemical_formula_sum   'Ba1 H3 C7 O4'
_cell_volume   2710.41281809
_cell_formula_units_Z   1
loop_
 _symmetry_equiv_pos_site_id
 _symmetry_equiv_pos_as_xyz
  1  'x, y, z'
loop_
 _atom_site_type_symbol
 _atom_site_label
 _atom_site_symmetry_multiplicity
 _atom_site_fract_x
 _atom_site_fract_y
 _atom_site_fract_z
 _atom_site_occupancy
  Ba  Ba0  1  0.45865000  0.62171000  0.60217000  1
  H  H1  1  0.54598000  0.20435000  0.90546000  1
  H  H2  1  0.39441000  0.31916000  0.86366000  1
  H  H3  1  0.70079000  0.21161000  0.76525000  1
  C  C4  1  0.18134000  0.37879000  0.84204000  1
  C  C5  1  0.20141000  0.36683000  0.76973000  1
  C  C6  1  0.21865000  0.45753000  0.74256000  1
  C  C7  1  0.24741000  0.44995000  0.66600000  1
  C  C8  1  0.70048000  0.35131000  0.57963000  1
  C  C9  1  0.67849000  0.12133000  0.65813000  1
  C  C10  1  0.56610000  0.37172000  0.57872000  1
  O  O11  1  0.26606000  0.53479000  0.64558000  1
  O  O12  1  0.64830000  0.20970000  0.63163000  1
  O  O13  1  0.75135000  0.14471000  0.87374000  1
  O  O14  1  0.52177000  0.43912000  0.62898000  1
