# generated using pymatgen
data_InH19C16O5
_symmetry_space_group_name_H-M   'P 1'
_cell_length_a   9.89239000
_cell_length_b   10.00338000
_cell_length_c   19.38766000
_cell_angle_alpha   108.49933000
_cell_angle_beta   106.71269000
_cell_angle_gamma   76.14382000
_symmetry_Int_Tables_number   1
_chemical_formula_structural   InH19C16O5
_chemical_formula_sum   'In1 H19 C16 O5'
_cell_volume   1719.19436006
_cell_formula_units_Z   1
loop_
 _symmetry_equiv_pos_site_id
 _symmetry_equiv_pos_as_xyz
  1  'x, y, z'
loop_
 _atom_site_type_symbol
 _atom_site_label
 _atom_site_symmetry_multiplicity
 _atom_site_fract_x
 _atom_site_fract_y
 _atom_site_fract_z
 _atom_site_occupancy
  In  In0  1  0.86265000  0.03787000  0.72196000  1
  H  H1  1  0.67717000  0.13656000  0.92352000  1
  H  H2  1  0.73815000  0.16731000  0.03281000  1
  H  H3  1  0.80776000  0.23162000  0.16845000  1
  H  H4  1  0.45796000  0.22584000  0.28069000  1
  H  H5  1  0.52573000  0.28929000  0.41591000  1
  H  H6  1  0.24004000  0.15036000  0.93625000  1
  H  H7  1  0.29498000  0.21660000  0.04257000  1
  H  H8  1  0.36491000  0.27825000  0.17764000  1
  H  H9  1  0.82613000  0.38475000  0.27523000  1
  H  H10  1  0.88627000  0.45913000  0.41168000  1
  H  H11  1  0.35438000  0.01918000  0.72553000  1
  H  H12  1  0.78386000  0.63732000  0.51018000  1
  H  H13  1  0.17387000  0.61525000  0.72477000  1
  H  H14  1  0.11373000  0.54088000  0.58832000  1
  H  H15  1  0.19225000  0.76838000  0.83155000  1
  H  H16  1  0.54204000  0.77417000  0.71932000  1
  H  H17  1  0.47427000  0.71071000  0.58409000  1
  H  H18  1  0.21615000  0.36268000  0.48982000  1
  H  H19  1  0.13899000  0.44933000  0.27656000  1
  C  C20  1  0.13318000  0.06068000  0.79171000  1
  C  C21  1  0.28318000  0.08346000  0.82855000  1
  C  C22  1  0.38406000  0.05730000  0.78606000  1
  C  C23  1  0.74838000  0.42909000  0.50600000  1
  C  C24  1  0.78758000  0.56491000  0.54250000  1
  C  C25  1  0.82498000  0.61084000  0.62047000  1
  C  C26  1  0.85288000  0.76010000  0.65773000  1
  C  C27  1  0.30517000  0.76767000  0.85876000  1
  C  C28  1  0.44910000  0.72119000  0.69134000  1
  C  C29  1  0.40721000  0.73636000  0.81466000  1
  C  C30  1  0.36614000  0.69665000  0.73359000  1
  C  C31  1  0.25162000  0.57092000  0.49401000  1
  C  C32  1  0.21242000  0.43510000  0.45750000  1
  C  C33  1  0.17502000  0.38917000  0.37953000  1
  C  C34  1  0.17023000  0.48166000  0.33732000  1
  C  C35  1  0.14712000  0.23990000  0.34227000  1
  O  O36  1  0.74833000  0.10701000  0.81142000  1
  O  O37  1  0.59953000  0.00372000  0.70662000  1
  O  O38  1  0.04503000  0.08233000  0.83202000  1
  O  O39  1  0.89212000  0.80113000  0.72927000  1
  O  O40  1  0.10789000  0.19888000  0.27074000  1
