# generated using pymatgen
data_Zn(CO2)2
_symmetry_space_group_name_H-M   'P 1'
_cell_length_a   10.50684000
_cell_length_b   10.52222000
_cell_length_c   12.52831000
_cell_angle_alpha   81.43790000
_cell_angle_beta   81.30540000
_cell_angle_gamma   74.72438000
_symmetry_Int_Tables_number   1
_chemical_formula_structural   Zn(CO2)2
_chemical_formula_sum   'Zn1 C2 O4'
_cell_volume   1312.11553358
_cell_formula_units_Z   1
loop_
 _symmetry_equiv_pos_site_id
 _symmetry_equiv_pos_as_xyz
  1  'x, y, z'
loop_
 _atom_site_type_symbol
 _atom_site_label
 _atom_site_symmetry_multiplicity
 _atom_site_fract_x
 _atom_site_fract_y
 _atom_site_fract_z
 _atom_site_occupancy
  Zn  Zn0  1  0.66922000  0.33136000  0.74868000  1
  C  C1  1  0.68093000  0.59968000  0.72152000  1
  C  C2  1  0.92122000  0.31529000  0.78916000  1
  O  O3  1  0.70066000  0.58194000  0.82062000  1
  O  O4  1  0.64922000  0.51732000  0.67183000  1
  O  O5  1  0.81883000  0.27987000  0.84152000  1
  O  O6  1  0.93219000  0.36798000  0.69275000  1
