# generated using pymatgen
data_HO8
_symmetry_space_group_name_H-M   'P 1'
_cell_length_a   14.13016000
_cell_length_b   20.19217000
_cell_length_c   20.04661000
_cell_angle_alpha   90.20618000
_cell_angle_beta   90.00449000
_cell_angle_gamma   90.03568000
_symmetry_Int_Tables_number   1
_chemical_formula_structural   HO8
_chemical_formula_sum   'H1 O8'
_cell_volume   5719.63239599
_cell_formula_units_Z   1
loop_
 _symmetry_equiv_pos_site_id
 _symmetry_equiv_pos_as_xyz
  1  'x, y, z'
loop_
 _atom_site_type_symbol
 _atom_site_label
 _atom_site_symmetry_multiplicity
 _atom_site_fract_x
 _atom_site_fract_y
 _atom_site_fract_z
 _atom_site_occupancy
  H  H0  1  0.69516000  0.07878000  0.23819000  1
  O  O1  1  0.90534000  0.06472000  0.23220000  1
  O  O2  1  0.03301000  0.00169000  0.25240000  1
  O  O3  1  0.96037000  0.84148000  0.25568000  1
  O  O4  1  0.80406000  0.83454000  0.23582000  1
  O  O5  1  0.73712000  0.96876000  0.29881000  1
  O  O6  1  0.87182000  0.96538000  0.35771000  1
  O  O7  1  0.90075000  0.93961000  0.12430000  1
  O  O8  1  0.74239000  0.95297000  0.13111000  1
