# generated using pymatgen
data_BaCdO3
_symmetry_space_group_name_H-M   'P 1'
_cell_length_a   14.13016000
_cell_length_b   20.19217000
_cell_length_c   20.04661000
_cell_angle_alpha   90.20618000
_cell_angle_beta   90.00449000
_cell_angle_gamma   90.03568000
_symmetry_Int_Tables_number   1
_chemical_formula_structural   BaCdO3
_chemical_formula_sum   'Ba1 Cd1 O3'
_cell_volume   5719.63239599
_cell_formula_units_Z   1
loop_
 _symmetry_equiv_pos_site_id
 _symmetry_equiv_pos_as_xyz
  1  'x, y, z'
loop_
 _atom_site_type_symbol
 _atom_site_label
 _atom_site_symmetry_multiplicity
 _atom_site_fract_x
 _atom_site_fract_y
 _atom_site_fract_z
 _atom_site_occupancy
  Ba  Ba0  1  0.13234000  0.60229000  0.78219000  1
  Cd  Cd1  1  0.37895000  0.55146000  0.76358000  1
  O  O2  1  0.24239000  0.54574000  0.86881000  1
  O  O3  1  0.30455000  0.66639000  0.76427000  1
  O  O4  1  0.23723000  0.53216000  0.70127000  1
