# generated using pymatgen
data_BaCdC4SO3
_symmetry_space_group_name_H-M   'P 1'
_cell_length_a   14.13016000
_cell_length_b   20.19217000
_cell_length_c   20.04661000
_cell_angle_alpha   90.20618000
_cell_angle_beta   90.00449000
_cell_angle_gamma   90.03568000
_symmetry_Int_Tables_number   1
_chemical_formula_structural   BaCdC4SO3
_chemical_formula_sum   'Ba2 Cd2 C8 S2 O6'
_cell_volume   5719.63239599
_cell_formula_units_Z   2
loop_
 _symmetry_equiv_pos_site_id
 _symmetry_equiv_pos_as_xyz
  1  'x, y, z'
loop_
 _atom_site_type_symbol
 _atom_site_label
 _atom_site_symmetry_multiplicity
 _atom_site_fract_x
 _atom_site_fract_y
 _atom_site_fract_z
 _atom_site_occupancy
  Ba  Ba0  1  0.36778000  0.39740000  0.28068000  1
  Ba  Ba1  1  0.63223000  0.60260000  0.71932000  1
  Cd  Cd2  1  0.37895000  0.55146000  0.76358000  1
  Cd  Cd3  1  0.62106000  0.44854000  0.23642000  1
  C  C4  1  0.28408000  0.52481000  0.64585000  1
  C  C5  1  0.23077000  0.50201000  0.58719000  1
  C  C6  1  0.18288000  0.46683000  0.47410000  1
  C  C7  1  0.18059000  0.45250000  0.40190000  1
  C  C8  1  0.71593000  0.47519000  0.35415000  1
  C  C9  1  0.76924000  0.49799000  0.41281000  1
  C  C10  1  0.81713000  0.53317000  0.52590000  1
  C  C11  1  0.81942000  0.54750000  0.59810000  1
  S  S12  1  0.28664000  0.49343000  0.51102000  1
  S  S13  1  0.71337000  0.50656000  0.48898000  1
  O  O14  1  0.37205000  0.53546000  0.64257000  1
  O  O15  1  0.25950000  0.45065000  0.37023000  1
  O  O16  1  0.53268000  0.49798000  0.74763000  1
  O  O17  1  0.62796000  0.46454000  0.35743000  1
  O  O18  1  0.74051000  0.54934000  0.62977000  1
  O  O19  1  0.46733000  0.50202000  0.25237000  1
