# generated using pymatgen
data_Ba3Cd4
_symmetry_space_group_name_H-M   'P 1'
_cell_length_a   14.13016000
_cell_length_b   20.19217000
_cell_length_c   20.04661000
_cell_angle_alpha   90.20618000
_cell_angle_beta   90.00449000
_cell_angle_gamma   90.03568000
_symmetry_Int_Tables_number   1
_chemical_formula_structural   Ba3Cd4
_chemical_formula_sum   'Ba6 Cd8'
_cell_volume   5719.63239599
_cell_formula_units_Z   2
loop_
 _symmetry_equiv_pos_site_id
 _symmetry_equiv_pos_as_xyz
  1  'x, y, z'
loop_
 _atom_site_type_symbol
 _atom_site_label
 _atom_site_symmetry_multiplicity
 _atom_site_fract_x
 _atom_site_fract_y
 _atom_site_fract_z
 _atom_site_occupancy
  Ba  Ba0  1  0.13234000  0.60229000  0.78219000  1
  Ba  Ba1  1  0.63263000  0.89745000  0.21829000  1
  Ba  Ba2  1  0.63223000  0.60260000  0.71932000  1
  Ba  Ba3  1  0.86767000  0.39771000  0.21781000  1
  Ba  Ba4  1  0.36738000  0.10254000  0.78171000  1
  Ba  Ba5  1  0.13268000  0.89712000  0.27983000  1
  Cd  Cd6  1  0.12088000  0.44846000  0.26272000  1
  Cd  Cd7  1  0.37895000  0.55146000  0.76358000  1
  Cd  Cd8  1  0.87861000  0.94867000  0.23637000  1
  Cd  Cd9  1  0.62116000  0.05138000  0.73693000  1
  Cd  Cd10  1  0.87913000  0.55154000  0.73728000  1
  Cd  Cd11  1  0.62106000  0.44854000  0.23642000  1
  Cd  Cd12  1  0.12140000  0.05133000  0.76363000  1
  Cd  Cd13  1  0.37885000  0.94861000  0.26308000  1
