# generated using pymatgen
data_BaCd
_symmetry_space_group_name_H-M   'P 1'
_cell_length_a   14.13016000
_cell_length_b   20.19217000
_cell_length_c   20.04661000
_cell_angle_alpha   90.20618000
_cell_angle_beta   90.00449000
_cell_angle_gamma   90.03568000
_symmetry_Int_Tables_number   1
_chemical_formula_structural   BaCd
_chemical_formula_sum   'Ba4 Cd4'
_cell_volume   5719.63239599
_cell_formula_units_Z   4
loop_
 _symmetry_equiv_pos_site_id
 _symmetry_equiv_pos_as_xyz
  1  'x, y, z'
loop_
 _atom_site_type_symbol
 _atom_site_label
 _atom_site_symmetry_multiplicity
 _atom_site_fract_x
 _atom_site_fract_y
 _atom_site_fract_z
 _atom_site_occupancy
  Ba  Ba0  1  0.36778000  0.39740000  0.28068000  1
  Ba  Ba1  1  0.63263000  0.89745000  0.21829000  1
  Ba  Ba2  1  0.86767000  0.39771000  0.21781000  1
  Ba  Ba3  1  0.13268000  0.89712000  0.27983000  1
  Cd  Cd4  1  0.12088000  0.44846000  0.26272000  1
  Cd  Cd5  1  0.87861000  0.94867000  0.23637000  1
  Cd  Cd6  1  0.62106000  0.44854000  0.23642000  1
  Cd  Cd7  1  0.37885000  0.94861000  0.26308000  1
